geometry optimzed in LAMMPS
_audit_creation_date              2020-11-30 
_audit_creation_method            'lammps2cif' 
_symmetry_space_group_name_H-M    'P1' 
_symmetry_Int_Tables_number       1 
_symmetry_cell_setting            triclinic 
loop_ 
_symmetry_equiv_pos_as_xyz 
  x,y,z 
_cell_length_a                    41.17208416 
_cell_length_b                    42.3507590406793 
_cell_length_c                    30.3283760683103 
_cell_angle_alpha                 90.11490878587256 
_cell_angle_beta                  86.9052765715666 
_cell_angle_gamma                 117.9072521514063 
loop_ 
_atom_site_label 
_atom_site_type_symbol 
_atom_site_fract_x 
_atom_site_fract_y 
_atom_site_fract_z 
_atom_site_charge 
O1          O  0.19272106  0.23203960  0.46212993    -0.74500
O2          O  0.24846072  0.29085064  0.05223320    -0.74500
O3          O  0.25350949  0.29625447  0.46190612    -0.74600
O4          O  0.18948338  0.22515121  0.05073131    -0.74600
O5          O  0.22818704  0.20186127  0.04642725    -0.74500
O6          O  0.28859345  0.26904555  0.45681315    -0.74500
O7          O  0.28712125  0.26748341  0.04690064    -0.74500
O8          O  0.22808037  0.20514936  0.45796810    -0.74600
Ni9        Ni  0.21984038  0.26213475  0.50691662     1.25400
Ni10       Ni  0.25936279  0.23503439  0.00193074     1.25400
C11         C  0.20056905  0.20868603  0.44549313     0.87700
C12         C  0.27641419  0.28880376  0.06494125     0.87600
C13         C  0.28079148  0.29307963  0.44351110     0.87700
C14         C  0.19909259  0.20185714  0.06317610     0.87800
O15         O  0.47820589  0.21610204  0.43916868    -0.74500
O16         O  0.47749458  0.27402938  0.03694356    -0.74500
O17         O  0.47424614  0.27805659  0.44803548    -0.74600
O18         O  0.48143382  0.21243437  0.02794009    -0.74600
O19         O  0.04269995  0.24368974  0.02216324    -0.74500
O20         O  0.03536805  0.30851521  0.44047795    -0.74500
O21         O  0.03864190  0.30579329  0.02919054    -0.74500
O22         O  0.03943683  0.24682660  0.43186177    -0.74600
Ni23       Ni  0.47571211  0.24409338  0.98825267     1.25400
Ni24       Ni  0.04124566  0.27723867  0.98067764     1.25400
C25         C  0.50884057  0.22202548  0.41909486     0.87700
C26         C  0.50784944  0.29940185  0.04921318     0.87600
C27         C  0.50367069  0.30396239  0.43057473     0.87700
C28         C  0.51308058  0.21756247  0.03895084     0.87800
O29         O  0.28437930  0.04250148  0.05358608    -0.74500
O30         O  0.21224582  0.02307659  0.46629065    -0.74500
O31         O  0.21259275  0.02776266  0.05511964    -0.74600
O32         O  0.28439085  0.03937123  0.46345982    -0.74600
O33         O  0.26879483  0.48138871  0.46873350    -0.74500
O34         O  0.19538348  0.46954625  0.05969489    -0.74500
O35         O  0.19694481  0.46516503  0.47033993    -0.74500
O36         O  0.26722333  0.48421055  0.05769044    -0.74600
Ni37       Ni  0.24907692  0.03528277  0.50941394     1.25400
Ni38       Ni  0.23147224  0.47302748  0.51439165     1.25400
C39         C  0.28753562  0.51613046  0.06998158     0.87700
C40         C  0.19286369  0.49079640  0.45395077     0.87600
C41         C  0.19191309  0.49682874  0.07243618     0.87700
C42         C  0.28817342  0.51245618  0.45064294     0.87800
C43         C  0.49749778  0.38251272  0.20029818     0.86400
C44         C  0.46003106  0.38058840  0.20105716    -0.53800
C45         C  0.44933154  0.39302961  0.23797384     0.09400
C46         C  0.47948395  0.40726471  0.27211475     0.20300
C47         C  0.02357530  0.42223752  0.20810704    -0.54500
C48         C  0.01531810  0.43517997  0.24664202     0.09500
C49         C  0.49777049  0.36392111  0.24345267    -0.54000
C50         C  0.48781631  0.37603140  0.28055862     0.10000
H51         H  0.44413216  0.37021584  0.17265971     0.14600
H52         H  0.47201796  0.41756123  0.30259952     0.00300
H53         H  0.04896037  0.43718503  0.18848505     0.14900
H54         H  0.50671293  0.34354098  0.24491066     0.14700
C55         C  0.50208854  0.12430148  0.18584863     0.86400
C56         C  0.03558106  0.11882867  0.19405469    -0.53800
C57         C  0.03394255  0.10298692  0.23376490     0.09400
C58         C  0.49870081  0.09466047  0.26272258     0.20300
C59         C  0.46873381  0.08720121  0.19320230    -0.54500
C60         C  0.46676263  0.07148560  0.23285776     0.09500
C61         C  0.49874990  0.14529157  0.22617401    -0.54000
C62         C  0.49849490  0.13125192  0.26706284     0.10000
H63         H  0.06009660  0.13041168  0.17222908     0.14600
H64         H  0.49757105  0.08118771  0.29421541     0.00300
H65         H  0.44577056  0.07535481  0.17248512     0.14900
H66         H  0.49786028  0.17031639  0.22198554     0.14700
C67         C  0.11940974  0.12725225  0.29815320     0.86400
C68         C  0.08289829  0.12552532  0.28635299    -0.53800
C69         C  0.06719048  0.10389515  0.25182107     0.09400
C70         C  0.09000077  0.08572500  0.23180792     0.20300
C71         C  0.10928186  0.08863256  0.30648996    -0.54500
C72         C  0.09607617  0.06636769  0.27189564     0.09500
C73         C  0.14317434  0.13892665  0.25498046    -0.54000
C74         C  0.12857393  0.11762587  0.21993156     0.10000
H75         H  0.07080083  0.14092156  0.30187895     0.14600
H76         H  0.07747800  0.06826358  0.20363818     0.00300
H77         H  0.11194006  0.08033138  0.33918122     0.14900
H78         H  0.16851650  0.16402006  0.25204446     0.14700
C79         C  0.09984719  0.98166053  0.31228355     0.86400
C80         C  0.10587710  0.01971601  0.31039769    -0.53800
C81         C  0.09203619  0.02907031  0.27546369     0.09400
C82         C  0.07549242  0.99834597  0.24221664     0.20300
C83         C  0.05833614  0.45846205  0.30695159    -0.54500
C84         C  0.04570799  0.46545263  0.26888908     0.09500
C85         C  0.11874314  0.97941145  0.26819933    -0.54000
C86         C  0.10600110  0.98756714  0.23174858     0.10000
H87         H  0.12284814  0.03815352  0.33417397     0.14600
H88         H  0.06519588  0.00531844  0.21261258     0.00300
H89         H  0.04165600  0.43589827  0.32884205     0.14900
H90         H  0.14240351  0.97470781  0.26535248     0.14700
C91         C  0.37635822  0.01208845  0.29613660     0.86400
C92         C  0.37929017  0.47749887  0.29222340    -0.53800
C93         C  0.39529591  0.47397052  0.25333423     0.09400
C94         C  0.40764270  0.00706176  0.22098700     0.20300
C95         C  0.41494680  0.04224440  0.28672106    -0.54500
C96         C  0.43212932  0.03991367  0.24869907     0.09500
C97         C  0.35556803  0.01160359  0.25505463    -0.54000
C98         C  0.37232604  0.01117094  0.21505545     0.10000
H99         H  0.36621785  0.45589469  0.31636463     0.14600
H100        H  0.42211007  0.00545178  0.19008898     0.00300
H101        H  0.42653689  0.06586466  0.30667441     0.14900
H102        H  0.32906649  0.51131570  0.25731567     0.14700
C103        C  0.35425398  0.37967615  0.20846674     0.86400
C104        C  0.36887032  0.42021431  0.20765320    -0.53800
C105        C  0.39063868  0.43769848  0.24129496     0.09400
C106        C  0.39735095  0.41211591  0.27269863     0.20300
C107        C  0.38740283  0.37341806  0.21055264    -0.54500
C108        C  0.41207471  0.39202280  0.24104130     0.09500
C109        C  0.33561614  0.36747793  0.25503134    -0.54000
C110        C  0.35787156  0.38273888  0.28916787     0.10000
H111        H  0.35788840  0.43300074  0.18671957     0.14600
H112        H  0.41564163  0.42600203  0.29964536     0.00300
H113        H  0.38934227  0.35338679  0.19009648     0.14900
H114        H  0.30846921  0.34519948  0.26168290     0.14700
C115        C  0.33573492  0.50320504  0.09841756    -0.12300
C116        C  0.31491058  0.52145482  0.10329178     0.04700
C117        C  0.31815500  0.04101901  0.14175572    -0.07600
C118        C  0.33953782  0.03954196  0.17561845    -0.08300
C119        C  0.35773041  0.01816184  0.17297185    -0.02900
C120        C  0.35749827  0.50192023  0.13199496     0.03900
N121        N  0.37710542  0.48219165  0.12371199     0.66400
H122        H  0.33443918  0.48894437  0.06827929     0.15300
H123        H  0.34057610  0.05433674  0.20513422     0.15000
N124        N  0.29748786  0.06004368  0.14870983     0.74100
O125        O  0.35910219  0.45069230  0.11072046    -0.39300
O126        O  0.41108774  0.99914765  0.11283934    -0.39300
O127        O  0.26711738  0.54545371  0.17108441    -0.40000
O128        O  0.31269157  0.09320658  0.14024755    -0.40000
C129        C  0.33797957  0.03558233  0.33842260    -0.12300
C130        C  0.35907174  0.01728090  0.33970020     0.04700
C131        C  0.36437739  0.50641436  0.38211317    -0.07600
C132        C  0.33948688  0.50355600  0.41755948    -0.08300
C133        C  0.31466909  0.51715095  0.41372416    -0.02900
C134        C  0.31612695  0.03580802  0.37488663     0.03900
N135        N  0.29500051  0.05445730  0.37149194     0.66400
H136        H  0.33818343  0.04999508  0.30891741     0.15300
H137        H  0.34051117  0.49224476  0.44914651     0.15000
N138        N  0.39552154  0.50087122  0.39121191     0.74100
O139        O  0.26481843  0.03986228  0.35313495    -0.39300
O140        O  0.31018988  0.58769007  0.37743820    -0.39300
O141        O  0.42323376  0.01155494  0.36432464    -0.40000
O142        O  0.39849752  0.49154228  0.42970815    -0.40000
C143        C  0.13924382  0.45839114  0.35046596    -0.12300
C144        C  0.11566994  0.97417065  0.35396257     0.04700
C145        C  0.11283640  0.98879494  0.39534287    -0.07600
C146        C  0.13851884  0.99445734  0.42713917    -0.08300
C147        C  0.16513771  0.48285655  0.42060567    -0.02900
C148        C  0.16386376  0.46272152  0.38304326     0.03900
N149        N  0.18882745  0.44822870  0.37607924     0.66400
H150        H  0.13956285  0.44322204  0.32192105     0.15300
H151        H  0.13733429  0.00759560  0.45744028     0.15000
N152        N  0.08427582  0.99834076  0.40545791     0.74100
O153        O  0.21840088  0.46573155  0.35289828    -0.39300
O154        O  0.17754213  0.41535795  0.38369523    -0.39300
O155        O  0.05247934  0.97404188  0.41733423    -0.40000
O156        O  0.09258891  0.03043895  0.41327451    -0.40000
C157        C  0.15003427  0.46160703  0.13559470    -0.12300
C158        C  0.16488153  0.49281239  0.10905408     0.04700
C159        C  0.15548036  0.02020787  0.12017348    -0.07600
C160        C  0.13408341  0.01696003  0.15903928    -0.08300
C161        C  0.12195870  0.98697596  0.18716907    -0.02900
C162        C  0.12879440  0.45840657  0.17430577     0.03900
N163        N  0.11459969  0.42595462  0.20019102     0.66400
H164        H  0.15598924  0.43987674  0.12728348     0.15300
H165        H  0.12860803  0.03882697  0.16837519     0.15000
N166        N  0.16790940  0.05178215  0.09307788     0.74100
O167        O  0.08516603  0.39954724  0.18979157    -0.39300
O168        O  0.13606996  0.92048531  0.22344258    -0.39300
O169        O  0.14668662  0.55364301  0.06588567    -0.40000
O170        O  0.19573072  0.08001806  0.10329447    -0.40000
C171        C  0.02475238  0.35874322  0.08383779    -0.12300
C172        C  0.50704968  0.32119159  0.08738021     0.04700
C173        C  0.48669042  0.30461120  0.12684518    -0.07600
C174        C  0.48432298  0.32527207  0.16155703    -0.08300
C175        C  0.50305248  0.36307453  0.15954387    -0.02900
C176        C  0.02207779  0.37972648  0.11880253     0.03900
N177        N  0.03513863  0.41698640  0.11020543     0.66400
H178        H  0.03907896  0.37179811  0.05283708     0.15300
H179        H  0.46725669  0.31115038  0.19066959     0.15000
N180        N  0.46922621  0.26662513  0.13300954     0.74100
O181        O  0.06906356  0.43697922  0.10154394    -0.39300
O182        O  0.01250356  0.42770426  0.10023141    -0.39300
O183        O  0.48606187  0.25247601  0.15166517    -0.40000
O184        O  0.43490626  0.24876982  0.12986171    -0.40000
C185        C  0.52682312  0.36843179  0.33351819    -0.12300
C186        C  0.49183576  0.36331712  0.32397760     0.04700
C187        C  0.46127048  0.34162973  0.35223569    -0.07600
C188        C  0.46586688  0.32394804  0.38844050    -0.08300
C189        C  0.50080587  0.32776296  0.39700464    -0.02900
C190        C  0.53176482  0.35173759  0.37010574     0.03900
N191        N  0.56827327  0.35830774  0.37799130     0.66400
H192        H  0.55050395  0.38478932  0.31146748     0.15300
H193        H  0.44169818  0.30598090  0.40870716     0.15000
N194        N  0.42514277  0.33518415  0.34278674     0.74100
O195        O  0.58397289  0.34506995  0.35298038    -0.39300
O196        O  0.08706420  0.38265363  0.40384185    -0.39300
O197        O  0.40608533  0.30955312  0.31861991    -0.40000
O198        O  0.90979025  0.34980778  0.36586260    -0.40000
C199        C  0.49023529  0.16210285  0.38686875    -0.12300
C200        C  0.50843627  0.19930164  0.38114183     0.04700
C201        C  0.02519686  0.21380534  0.33926877    -0.07600
C202        C  0.02269438  0.19108959  0.30412808    -0.08300
C203        C  0.50308960  0.15326032  0.30872539    -0.02900
C204        C  0.48796760  0.13906957  0.35207597     0.03900
N205        N  0.47031037  0.10174183  0.36283135     0.66400
H206        H  0.47796230  0.15062514  0.41927253     0.15300
H207        H  0.03621549  0.20363546  0.27265802     0.15000
N208        N  0.04290011  0.25157258  0.33100516     0.74100
O209        O  0.49033275  0.08758145  0.37132799    -0.39300
O210        O  0.43795993  0.08788228  0.38039599    -0.39300
O211        O  0.07751487  0.26850250  0.32545036    -0.40000
O212        O  0.02393747  0.26648134  0.32076185    -0.40000
C213        C  0.48814460  0.15683934  0.07193776    -0.12300
C214        C  0.51452988  0.19284599  0.07208118     0.04700
C215        C  0.53965158  0.20461077  0.10555722    -0.07600
C216        C  0.53583519  0.18100881  0.14005261    -0.08300
C217        C  0.50731679  0.14534793  0.14237431    -0.02900
C218        C  0.48495780  0.13278243  0.10553056     0.03900
N219        N  0.46071909  0.09586556  0.09921593     0.66400
H220        H  0.46993126  0.14708232  0.04498204     0.15300
H221        H  0.55447439  0.19119158  0.16653687     0.15000
N222        N  0.56761619  0.24095409  0.10677803     0.74100
O223        O  0.92661902  0.08546683  0.09779479    -0.39300
O224        O  0.47389917  0.07631720  0.08371403    -0.39300
O225        O  0.06220292  0.26252770  0.13094514    -0.40000
O226        O  0.59987542  0.24925291  0.09182739    -0.40000
C227        C  0.33176110  0.33899295  0.09287319    -0.12300
C228        C  0.29589901  0.31180149  0.10106322     0.04700
C229        C  0.27718844  0.30993230  0.14189591    -0.07600
C230        C  0.29502425  0.33430266  0.17456740    -0.08300
C231        C  0.33237998  0.36009705  0.16851637    -0.02900
C232        C  0.35013750  0.36337869  0.12550363     0.03900
N233        N  0.38733724  0.38985683  0.11430186     0.66400
H234        H  0.34566781  0.34148102  0.06067506     0.15300
H235        H  0.27903167  0.33189149  0.20484825     0.15000
N236        N  0.24055286  0.28202075  0.15165535     0.74100
O237        O  0.41228841  0.38063924  0.11517026    -0.39300
O238        O  0.39256553  0.41471942  0.08751681    -0.39300
O239        O  0.23586260  0.25334989  0.16998720    -0.40000
O240        O  0.21385872  0.28884849  0.15107683    -0.40000
C241        C  0.31687962  0.35352353  0.40758729    -0.12300
C242        C  0.30353942  0.31660478  0.40567405     0.04700
C243        C  0.31341687  0.30261902  0.36796120    -0.07600
C244        C  0.33402125  0.32535009  0.33217522    -0.08300
C245        C  0.34614734  0.36244755  0.33289007    -0.02900
C246        C  0.33870115  0.37641203  0.37225177     0.03900
N247        N  0.35422635  0.41373214  0.37818055     0.66400
H248        H  0.31109562  0.36481396  0.43722708     0.15300
H249        H  0.33928019  0.31363736  0.30259237     0.15000
N250        N  0.30062321  0.26505926  0.36406657     0.74100
O251        O  0.33313433  0.42677299  0.38947480    -0.39300
O252        O  0.38783729  0.43052358  0.38600503    -0.39300
O253        O  0.27261154  0.24689638  0.34264337    -0.40000
O254        O  0.32168878  0.25210243  0.37268696    -0.40000
C255        C  0.19321708  0.17015851  0.38215051    -0.12300
C256        C  0.17825179  0.18667315  0.41019464     0.05600
C257        C  0.14331553  0.18354390  0.40230262    -0.07600
C258        C  0.12492877  0.16534657  0.36555023    -0.08300
C259        C  0.14015441  0.14911556  0.33671688    -0.02900
C260        C  0.17462993  0.15115119  0.34624718     0.03900
N261        N  0.19143553  0.13389921  0.32015666     0.66400
H262        H  0.21984238  0.17206825  0.38785907     0.15300
H263        H  0.09816625  0.16320461  0.36110631     0.15000
N264        N  0.12523939  0.19722406  0.43229028     0.74100
O265        O  0.22199519  0.15309286  0.29966782    -0.39300
O266        O  0.18307134  0.10189888  0.32961065    -0.39300
O267        O  0.12304129  0.22491870  0.42164356    -0.40000
O268        O  0.10543123  0.17793957  0.46471240    -0.40000
C269        C  0.20095137  0.17277771  0.13167660    -0.12300
C270        C  0.17928363  0.17607293  0.09994246     0.04700
C271        C  0.14105311  0.15303316  0.10293561    -0.07600
C272        C  0.12508849  0.12941808  0.13968927    -0.08300
C273        C  0.14643726  0.12995144  0.17460907    -0.02900
C274        C  0.18521677  0.14988641  0.16837282     0.03900
N275        N  0.20921588  0.14755310  0.19911592     0.66400
H276        H  0.23066880  0.18871556  0.12834011     0.15300
H277        H  0.09584601  0.11170916  0.14158728     0.15000
N278        N  0.11833956  0.15275198  0.06884043     0.74100
O279        O  0.23545028  0.17588927  0.21218531    -0.39300
O280        O  0.20960624  0.11821332  0.20464219    -0.39300
O281        O  0.10961761  0.12923008  0.03981241    -0.40000
O282        O  0.10087128  0.17046320  0.07321246    -0.40000
O283        O  0.19272104  0.23203956  0.96212983    -0.74500
O284        O  0.24846078  0.29085085  0.55223318    -0.74500
O285        O  0.25350948  0.29625439  0.96190616    -0.74600
O286        O  0.18948343  0.22515140  0.55073141    -0.74600
O287        O  0.22818712  0.20186148  0.54642744    -0.74500
O288        O  0.28859343  0.26904547  0.95681310    -0.74500
O289        O  0.28712132  0.26748363  0.54690070    -0.74500
O290        O  0.22808034  0.20514929  0.95796791    -0.74600
Ni291      Ni  0.21984034  0.26213462  0.00691658     1.25400
Ni292      Ni  0.25936284  0.23503454  0.50193086     1.25400
C293        C  0.20056903  0.20868601  0.94549295     0.87700
C294        C  0.27641425  0.28880399  0.56494125     0.87600
C295        C  0.28079148  0.29307957  0.94351112     0.87700
C296        C  0.19909266  0.20185735  0.56317625     0.87800
O297        O  0.47820607  0.21610207  0.93916863    -0.74500
O298        O  0.47749447  0.27402944  0.53694354    -0.74500
O299        O  0.47424634  0.27805661  0.94803549    -0.74600
O300        O  0.48143374  0.21243445  0.52794010    -0.74600
O301        O  0.04269984  0.24368970  0.52216323    -0.74500
O302        O  0.03536819  0.30851531  0.94047800    -0.74500
O303        O  0.03864177  0.30579323  0.52919050    -0.74500
O304        O  0.03943696  0.24682669  0.93186176    -0.74600
Ni305      Ni  0.47571196  0.24409341  0.48825268     1.25400
Ni306      Ni  0.04124553  0.27723860  0.48067762     1.25400
C307        C  0.50884076  0.22202552  0.91909481     0.87700
C308        C  0.50784933  0.29940193  0.54921313     0.87600
C309        C  0.50367091  0.30396240  0.93057478     0.87700
C310        C  0.51308052  0.21756257  0.53895078     0.87800
O311        O  0.28437926  0.04250154  0.55358595    -0.74500
O312        O  0.21224579  0.02307642  0.96629083    -0.74500
O313        O  0.21259269  0.02776265  0.55511946    -0.74600
O314        O  0.28439079  0.03937099  0.96345995    -0.74600
O315        O  0.26879481  0.48138877  0.96873363    -0.74500
O316        O  0.19538349  0.46954615  0.55969475    -0.74500
O317        O  0.19694480  0.46516511  0.97034006    -0.74500
O318        O  0.26722335  0.48421048  0.55769031    -0.74600
Ni319      Ni  0.24907693  0.03528265  0.00941410     1.25400
Ni320      Ni  0.23147223  0.47302756  0.01439178     1.25400
C321        C  0.28753561  0.51613038  0.56998148     0.87700
C322        C  0.19286370  0.49079647  0.95395087     0.87600
C323        C  0.19191309  0.49682863  0.57243604     0.87700
C324        C  0.28817341  0.51245625  0.95064307     0.87800
C325        C  0.49749768  0.38251266  0.70029829     0.86400
C326        C  0.46003096  0.38058834  0.70105734    -0.53800
C327        C  0.44933149  0.39302957  0.73797403     0.09400
C328        C  0.47948394  0.40726468  0.77211489     0.20300
C329        C  0.02357525  0.42223732  0.70810712    -0.54500
C330        C  0.01531811  0.43517985  0.74664206     0.09500
C331        C  0.49777044  0.36392106  0.74345276    -0.54000
C332        C  0.48781631  0.37603137  0.78055875     0.10000
H333        H  0.44413203  0.37021577  0.67265990     0.14600
H334        H  0.47201799  0.41756123  0.80259967     0.00300
H335        H  0.04896033  0.43718476  0.68848513     0.14900
H336        H  0.50671289  0.34354094  0.74491073     0.14700
C337        C  0.50208843  0.12430155  0.68584844     0.86400
C338        C  0.03558101  0.11882856  0.69405466    -0.53800
C339        C  0.03394244  0.10298676  0.73376486     0.09400
C340        C  0.49870060  0.09466048  0.76272237     0.20300
C341        C  0.46873357  0.08720136  0.69320215    -0.54500
C342        C  0.46676236  0.07148572  0.73285758     0.09500
C343        C  0.49874995  0.14529172  0.72617383    -0.54000
C344        C  0.49849486  0.13125200  0.76706266     0.10000
H345        H  0.06009650  0.13041150  0.67222909     0.14600
H346        H  0.49757080  0.08118771  0.79421520     0.00300
H347        H  0.44577028  0.07535504  0.67248493     0.14900
H348        H  0.49786051  0.17031664  0.72198540     0.14700
C349        C  0.11940963  0.12725211  0.79815315     0.86400
C350        C  0.08289816  0.12552512  0.78635296    -0.53800
C351        C  0.06719036  0.10389497  0.75182102     0.09400
C352        C  0.09000072  0.08572487  0.73180784     0.20300
C353        C  0.10928180  0.08863243  0.80648990    -0.54500
C354        C  0.09607618  0.06636758  0.77189555     0.09500
C355        C  0.14317423  0.13892654  0.75498041    -0.54000
C356        C  0.12857386  0.11762579  0.71993149     0.10000
H357        H  0.07080066  0.14092131  0.80187895     0.14600
H358        H  0.07747798  0.06826346  0.70363809     0.00300
H359        H  0.11193999  0.08033124  0.83918116     0.14900
H360        H  0.16851637  0.16401998  0.75204444     0.14700
C361        C  0.09984745  0.98166051  0.81228345     0.86400
C362        C  0.10587731  0.01971598  0.81039759    -0.53800
C363        C  0.09203637  0.02907026  0.77546358     0.09400
C364        C  0.07549264  0.99834592  0.74221655     0.20300
C365        C  0.05833627  0.45846195  0.80695152    -0.54500
C366        C  0.04570805  0.46545250  0.76888905     0.09500
C367        C  0.11874340  0.97941144  0.76819924    -0.54000
C368        C  0.10600134  0.98756711  0.73174850     0.10000
H369        H  0.12284826  0.03815349  0.83417395     0.14600
H370        H  0.06519608  0.00531836  0.71261248     0.00300
H371        H  0.04165617  0.43589819  0.82884201     0.14900
H372        H  0.14240376  0.97470779  0.76535240     0.14700
C373        C  0.37635800  0.01208829  0.79613647     0.86400
C374        C  0.37929025  0.47749900  0.79222345    -0.53800
C375        C  0.39529594  0.47397063  0.75333431     0.09400
C376        C  0.40764259  0.00706176  0.72098684     0.20300
C377        C  0.41494644  0.04224431  0.78672076    -0.54500
C378        C  0.43212907  0.03991376  0.74869889     0.09500
C379        C  0.35556772  0.01160324  0.75505449    -0.54000
C380        C  0.37232580  0.01117071  0.71505532     0.10000
H381        H  0.36621794  0.45589473  0.81636487     0.14600
H382        H  0.42210999  0.00545186  0.69008883     0.00300
H383        H  0.42653664  0.06586512  0.80667445     0.14900
H384        H  0.32906638  0.51131563  0.75731582     0.14700
C385        C  0.35425399  0.37967625  0.70846689     0.86400
C386        C  0.36887040  0.42021442  0.70765329    -0.53800
C387        C  0.39063875  0.43769859  0.74129505     0.09400
C388        C  0.39735097  0.41211601  0.77269878     0.20300
C389        C  0.38740279  0.37341809  0.71055285    -0.54500
C390        C  0.41207468  0.39202283  0.74104149     0.09500
C391        C  0.33561613  0.36747808  0.75503150    -0.54000
C392        C  0.35787155  0.38273903  0.78916803     0.10000
H393        H  0.35788852  0.43300086  0.68671959     0.14600
H394        H  0.41564165  0.42600213  0.79964551     0.00300
H395        H  0.38934218  0.35338678  0.69009672     0.14900
H396        H  0.30846917  0.34519963  0.76168307     0.14700
C397        C  0.33573502  0.50320516  0.59841752    -0.12300
C398        C  0.31491052  0.52145477  0.60329175     0.04700
C399        C  0.31815485  0.04101892  0.64175563    -0.07600
C400        C  0.33953758  0.03954176  0.67561840    -0.08300
C401        C  0.35773020  0.01816168  0.67297173    -0.02900
C402        C  0.35749835  0.50192038  0.63199497     0.03900
N403        N  0.37710569  0.48219199  0.62371198     0.66400
H404        H  0.33443944  0.48894460  0.56827919     0.15300
H405        H  0.34057578  0.05433646  0.70513423     0.15000
N406        N  0.29748776  0.06004365  0.64870972     0.74100
O407        O  0.35910260  0.45069262  0.61072046    -0.39300
O408        O  0.41108771  0.99914779  0.61283909    -0.39300
O409        O  0.26711675  0.54545307  0.67108408    -0.40000
O410        O  0.31269151  0.09320653  0.64024732    -0.40000
C411        C  0.33797898  0.03558177  0.83842248    -0.12300
C412        C  0.35907144  0.01728063  0.83970008     0.04700
C413        C  0.36437740  0.50641445  0.88211326    -0.07600
C414        C  0.33948689  0.50355607  0.91755957    -0.08300
C415        C  0.31466908  0.51715101  0.91372427    -0.02900
C416        C  0.31612639  0.03580742  0.87488657     0.03900
N417        N  0.29499970  0.05445644  0.87149188     0.66400
H418        H  0.33818263  0.04999438  0.80891726     0.15300
H419        H  0.34051120  0.49224484  0.94914661     0.15000
N420        N  0.39552161  0.50087140  0.89121201     0.74100
O421        O  0.26481766  0.03986124  0.85313482    -0.39300
O422        O  0.31018987  0.58769012  0.87743845    -0.39300
O423        O  0.42323380  0.01155521  0.86432439    -0.40000
O424        O  0.39849771  0.49154267  0.92970831    -0.40000
C425        C  0.13924425  0.45839136  0.85046575    -0.12300
C426        C  0.11567019  0.97417064  0.85396249     0.04700
C427        C  0.11283650  0.98879481  0.89534281    -0.07600
C428        C  0.13851885  0.99445717  0.92713921    -0.08300
C429        C  0.16513780  0.48285661  0.92060567    -0.02900
C430        C  0.16386411  0.46272175  0.88304317     0.03900
N431        N  0.18882790  0.44822905  0.87607924     0.66400
H432        H  0.13956347  0.44322237  0.82192081     0.15300
H433        H  0.13733421  0.00759539  0.95744032     0.15000
N434        N  0.08427579  0.99834045  0.90545780     0.74100
O435        O  0.21840110  0.46573173  0.85289781    -0.39300
O436        O  0.17754281  0.41535842  0.88369585    -0.39300
O437        O  0.05247936  0.97404147  0.91733408    -0.40000
O438        O  0.09258871  0.03043860  0.91327439    -0.40000
C439        C  0.15003416  0.46160685  0.63559445    -0.12300
C440        C  0.16488150  0.49281226  0.60905391     0.04700
C441        C  0.15548024  0.02020769  0.62017320    -0.07600
C442        C  0.13408342  0.01695989  0.65903909    -0.08300
C443        C  0.12195888  0.98697590  0.68716897    -0.02900
C444        C  0.12879428  0.45840638  0.67430553     0.03900
N445        N  0.11459953  0.42595441  0.70019073     0.66400
H446        H  0.15598909  0.43987655  0.62728320     0.15300
H447        H  0.12860798  0.03882680  0.66837499     0.15000
N448        N  0.16790904  0.05178187  0.59307746     0.74100
O449        O  0.08516599  0.39954699  0.68979106    -0.39300
O450        O  0.13607036  0.92048534  0.72344240    -0.39300
O451        O  0.14668676  0.55364313  0.56588573    -0.40000
O452        O  0.19573027  0.08001791  0.60329390    -0.40000
C453        C  0.02475209  0.35874311  0.58383780    -0.12300
C454        C  0.50704959  0.32119165  0.58738019     0.04700
C455        C  0.48669044  0.30461123  0.62684519    -0.07600
C456        C  0.48432297  0.32527205  0.66155708    -0.08300
C457        C  0.50305237  0.36307450  0.65954393    -0.02900
C458        C  0.02207749  0.37972632  0.61880259     0.03900
N459        N  0.03513820  0.41698622  0.61020551     0.66400
H460        H  0.03907855  0.37179801  0.55283705     0.15300
H461        H  0.46725676  0.31115032  0.69066967     0.15000
N462        N  0.46922638  0.26662516  0.63300957     0.74100
O463        O  0.06906311  0.43697913  0.60154394    -0.39300
O464        O  0.01250304  0.42770399  0.60023162    -0.39300
O465        O  0.48606243  0.25247611  0.65166449    -0.40000
O466        O  0.43490635  0.24876979  0.62986251    -0.40000
C467        C  0.52682324  0.36843162  0.83351805    -0.12300
C468        C  0.49183590  0.36331716  0.82397773     0.04700
C469        C  0.46127071  0.34163004  0.85223610    -0.07600
C470        C  0.46586717  0.32394836  0.88844089    -0.08300
C471        C  0.50080611  0.32776301  0.89700470    -0.02900
C472        C  0.53176499  0.35173738  0.87010552     0.03900
N473        N  0.56827340  0.35830717  0.87799065     0.66400
H474        H  0.55050400  0.38478898  0.81146714     0.15300
H475        H  0.44169852  0.30598141  0.90870777     0.15000
N476        N  0.42514299  0.33518464  0.84278742     0.74100
O477        O  0.58397244  0.34506877  0.85297979    -0.39300
O478        O  0.08706459  0.38265358  0.90384112    -0.39300
O479        O  0.40608532  0.30955360  0.81862075    -0.40000
O480        O  0.90979059  0.34980845  0.86586322    -0.40000
C481        C  0.49023510  0.16210291  0.88686852    -0.12300
C482        C  0.50843644  0.19930170  0.88114174     0.04700
C483        C  0.02519730  0.21380540  0.83926884    -0.07600
C484        C  0.02269477  0.19108962  0.80412816    -0.08300
C485        C  0.50308961  0.15326038  0.80872523    -0.02900
C486        C  0.48796732  0.13906963  0.85207572     0.03900
N487        N  0.47030969  0.10174186  0.86283101     0.66400
H488        H  0.47796188  0.15062519  0.91927223     0.15300
H489        H  0.03621607  0.20363544  0.77265816     0.15000
N490        N  0.04290095  0.25157265  0.83100530     0.74100
O491        O  0.49033174  0.08758114  0.87132772    -0.39300
O492        O  0.43795921  0.08788260  0.88039551    -0.39300
O493        O  0.07751575  0.26850231  0.82545110    -0.40000
O494        O  0.02393870  0.26648168  0.82076139    -0.40000
C495        C  0.48814457  0.15683943  0.57193760    -0.12300
C496        C  0.51452986  0.19284607  0.57208104     0.04700
C497        C  0.53965164  0.20461081  0.60555700    -0.07600
C498        C  0.53583524  0.18100884  0.64005238    -0.08300
C499        C  0.50731676  0.14534799  0.64237412    -0.02900
C500        C  0.48495779  0.13278249  0.60553036     0.03900
N501        N  0.46071922  0.09586560  0.59921562     0.66400
H502        H  0.46993122  0.14708241  0.54498188     0.15300
H503        H  0.55447447  0.19119158  0.66653661     0.15000
N504        N  0.56761638  0.24095408  0.60677769     0.74100
O505        O  0.92661954  0.08546642  0.59779396    -0.39300
O506        O  0.47389950  0.07631732  0.58371399    -0.39300
O507        O  0.06220282  0.26252770  0.63094522    -0.40000
O508        O  0.59987564  0.24925269  0.59182735    -0.40000
C509        C  0.33176115  0.33899316  0.59287327    -0.12300
C510        C  0.29589905  0.31180173  0.60106323     0.04700
C511        C  0.27718847  0.30993247  0.64189595    -0.07600
C512        C  0.29502428  0.33430278  0.67456748    -0.08300
C513        C  0.33238002  0.36009716  0.66851650    -0.02900
C514        C  0.35013756  0.36337883  0.62550377     0.03900
N515        N  0.38733737  0.38985685  0.61430211     0.66400
H516        H  0.34566789  0.34148125  0.56067513     0.15300
H517        H  0.27903169  0.33189154  0.70484839     0.15000
N518        N  0.24055290  0.28202089  0.65165536     0.74100
O519        O  0.41228839  0.38063903  0.61517034    -0.39300
O520        O  0.39256585  0.41471962  0.58751727    -0.39300
O521        O  0.23586267  0.25335015  0.66998751    -0.40000
O522        O  0.21385871  0.28884853  0.65107644    -0.40000
C523        C  0.31687938  0.35352351  0.90758733    -0.12300
C524        C  0.30353945  0.31660479  0.90567413     0.04700
C525        C  0.31341713  0.30261914  0.86796134    -0.07600
C526        C  0.33402149  0.32535028  0.83217538    -0.08300
C527        C  0.34614734  0.36244769  0.83289022    -0.02900
C528        C  0.33870089  0.37641208  0.87225185     0.03900
N529        N  0.35422587  0.41373217  0.87818065     0.66400
H530        H  0.31109520  0.36481387  0.93722706     0.15300
H531        H  0.33928059  0.31363763  0.80259257     0.15000
N532        N  0.30062371  0.26505943  0.86406671     0.74100
O533        O  0.33313365  0.42677290  0.88947441    -0.39300
O534        O  0.38783668  0.43052367  0.88600570    -0.39300
O535        O  0.27261227  0.24689644  0.84264319    -0.40000
O536        O  0.32168932  0.25210274  0.87268753    -0.40000
C537        C  0.19321694  0.17015833  0.88215047    -0.12300
C538        C  0.17825177  0.18667318  0.91019443     0.05600
C539        C  0.14331561  0.18354412  0.90230224    -0.07600
C540        C  0.12492882  0.16534670  0.86554993    -0.08300
C541        C  0.14015431  0.14911545  0.83671679    -0.02900
C542        C  0.17462976  0.15115095  0.84624719     0.03900
N543        N  0.19143526  0.13389880  0.82015683     0.66400
H544        H  0.21984218  0.17206794  0.88785913     0.15300
H545        H  0.09816638  0.16320493  0.86110586     0.15000
N546        N  0.12523963  0.19722462  0.93228964     0.74100
O547        O  0.22199487  0.15309231  0.79966783    -0.39300
O548        O  0.18307109  0.10189852  0.82961117    -0.39300
O549        O  0.12304194  0.22491943  0.92164266    -0.40000
O550        O  0.10543120  0.17794031  0.96471172    -0.40000
C551        C  0.20095137  0.17277782  0.63167671    -0.12300
C552        C  0.17928365  0.17607310  0.59994258     0.04700
C553        C  0.14105314  0.15303331  0.60293564    -0.07600
C554        C  0.12508848  0.12941811  0.63968920    -0.08300
C555        C  0.14643723  0.12995142  0.67460903    -0.02900
C556        C  0.18521674  0.14988643  0.66837284     0.03900
N557        N  0.20921582  0.14755309  0.69911594     0.66400
H558        H  0.23066878  0.18871569  0.62834028     0.15300
H559        H  0.09584605  0.11170918  0.64158714     0.15000
N560        N  0.11833961  0.15275223  0.56884048     0.74100
O561        O  0.23545004  0.17588927  0.71218562    -0.39300
O562        O  0.20960645  0.11821340  0.70464184    -0.39300
O563        O  0.10961722  0.12923008  0.53981275    -0.40000
O564        O  0.10087180  0.17046391  0.57321231    -0.40000
O565        O  0.19272101  0.73203963  0.46212988    -0.74500
O566        O  0.24846079  0.79085080  0.05223299    -0.74500
O567        O  0.25350942  0.79625449  0.46190616    -0.74600
O568        O  0.18948344  0.72515135  0.05073116    -0.74600
O569        O  0.22818710  0.70186141  0.04642717    -0.74500
O570        O  0.28859339  0.76904558  0.45681314    -0.74500
O571        O  0.28712131  0.76748355  0.04690052    -0.74500
O572        O  0.22808033  0.70514939  0.45796801    -0.74600
Ni573      Ni  0.21984031  0.76213474  0.50691661     1.25400
Ni574      Ni  0.25936286  0.73503450  0.00193064     1.25400
C575        C  0.20056902  0.70868608  0.44549304     0.87700
C576        C  0.27641425  0.78880393  0.06494108     0.87600
C577        C  0.28079141  0.79307966  0.44351112     0.87700
C578        C  0.19909265  0.70185729  0.06317600     0.87800
O579        O  0.47820604  0.71610205  0.43916871    -0.74500
O580        O  0.47749447  0.77402937  0.03694364    -0.74500
O581        O  0.47424627  0.77805658  0.44803555    -0.74600
O582        O  0.48143370  0.71243437  0.02794011    -0.74600
O583        O  0.04269985  0.74368970  0.02216326    -0.74500
O584        O  0.03536810  0.80851526  0.44047791    -0.74500
O585        O  0.03864182  0.80579325  0.02919061    -0.74500
O586        O  0.03943689  0.74682665  0.43186166    -0.74600
Ni587      Ni  0.47571199  0.74409340  0.98825272     1.25400
Ni588      Ni  0.04124557  0.77723864  0.98067769     1.25400
C589        C  0.50884071  0.72202549  0.41909488     0.87700
C590        C  0.50784932  0.79940184  0.04921328     0.87600
C591        C  0.50367081  0.80396238  0.43057480     0.87700
C592        C  0.51308046  0.71756247  0.03895085     0.87800
O593        O  0.28437917  0.54250146  0.05358621    -0.74500
O594        O  0.21224583  0.52307647  0.46629068    -0.74500
O595        O  0.21259263  0.52776267  0.05511961    -0.74600
O596        O  0.28439083  0.53937103  0.46345996    -0.74600
O597        O  0.26879491  0.98138892  0.46873332    -0.74500
O598        O  0.19538361  0.96954626  0.05969502    -0.74500
O599        O  0.19694487  0.96516516  0.47033985    -0.74500
O600        O  0.26722348  0.98421058  0.05769040    -0.74600
Ni601      Ni  0.24907689  0.53528262  0.50941403     1.25400
Ni602      Ni  0.23147234  0.97302764  0.51439151     1.25400
C603        C  0.28753577  0.01613051  0.06998148     0.87700
C604        C  0.19286371  0.99079652  0.45395074     0.87600
C605        C  0.19191323  0.99682876  0.07243629     0.87700
C606        C  0.28817347  0.01245641  0.45064278     0.87800
C607        C  0.49749762  0.88251262  0.20029836     0.86400
C608        C  0.46003091  0.88058832  0.20105733    -0.53800
C609        C  0.44933140  0.89302956  0.23797398     0.09400
C610        C  0.47948381  0.90726466  0.27211490     0.20300
C611        C  0.02357519  0.92223741  0.20810714    -0.54500
C612        C  0.01531801  0.93517991  0.24664208     0.09500
C613        C  0.49777031  0.86392102  0.24345286    -0.54000
C614        C  0.48781614  0.87603133  0.28055881     0.10000
H615        H  0.44413202  0.87021576  0.17265986     0.14600
H616        H  0.47201782  0.91756120  0.30259966     0.00300
H617        H  0.04896028  0.93718488  0.18848517     0.14900
H618        H  0.50671275  0.84354089  0.24491087     0.14700
C619        C  0.50208839  0.62430147  0.18584859     0.86400
C620        C  0.03558098  0.61882865  0.19405466    -0.53800
C621        C  0.03394250  0.60298691  0.23376485     0.09400
C622        C  0.49870069  0.59466044  0.26272251     0.20300
C623        C  0.46873361  0.58720123  0.19320231    -0.54500
C624        C  0.46676246  0.57148560  0.23285773     0.09500
C625        C  0.49874984  0.64529158  0.22617400    -0.54000
C626        C  0.49849485  0.63125191  0.26706281     0.10000
H627        H  0.06009654  0.63041170  0.17222902     0.14600
H628        H  0.49757096  0.58118768  0.29421532     0.00300
H629        H  0.44577032  0.57535485  0.17248512     0.14900
H630        H  0.49786030  0.67031645  0.22198557     0.14700
C631        C  0.11940976  0.62725233  0.29815307     0.86400
C632        C  0.08289830  0.62552539  0.28635287    -0.53800
C633        C  0.06719047  0.60389519  0.25182097     0.09400
C634        C  0.09000077  0.58572505  0.23180782     0.20300
C635        C  0.10928187  0.58863265  0.30648987    -0.54500
C636        C  0.09607618  0.56636776  0.27189556     0.09500
C637        C  0.14317435  0.63892670  0.25498032    -0.54000
C638        C  0.12857393  0.61762593  0.21993143     0.10000
H639        H  0.07080084  0.64092162  0.30187883     0.14600
H640        H  0.07747799  0.56826361  0.20363810     0.00300
H641        H  0.11194007  0.58033148  0.33918115     0.14900
H642        H  0.16851652  0.66402011  0.25204430     0.14700
C643        C  0.09984724  0.48166062  0.31228356     0.86400
C644        C  0.10587712  0.51971610  0.31039769    -0.53800
C645        C  0.09203622  0.52907039  0.27546366     0.09400
C646        C  0.07549248  0.49834605  0.24221662     0.20300
C647        C  0.05833608  0.95846198  0.30695162    -0.54500
C648        C  0.04570792  0.96545256  0.26888912     0.09500
C649        C  0.11874322  0.47941157  0.26819935    -0.54000
C650        C  0.10600118  0.48756724  0.23174859     0.10000
H651        H  0.12284814  0.53815363  0.33417398     0.14600
H652        H  0.06519594  0.50531850  0.21261255     0.00300
H653        H  0.04165594  0.93589822  0.32884209     0.14900
H654        H  0.14240358  0.47470791  0.26535254     0.14700
C655        C  0.37635811  0.51208829  0.29613664     0.86400
C656        C  0.37929016  0.97749896  0.29222338    -0.53800
C657        C  0.39529589  0.97397057  0.25333423     0.09400
C658        C  0.40764261  0.50706169  0.22098700     0.20300
C659        C  0.41494660  0.54224423  0.28672097    -0.54500
C660        C  0.43212918  0.53991364  0.24869907     0.09500
C661        C  0.35556786  0.51160335  0.25505468    -0.54000
C662        C  0.37232589  0.51117076  0.21505549     0.10000
H663        H  0.36621780  0.95589481  0.31636458     0.14600
H664        H  0.42210999  0.50545175  0.19008898     0.00300
H665        H  0.42653686  0.56586495  0.30667467     0.14900
H666        H  0.32906670  0.01131602  0.25731561     0.14700
C667        C  0.35425390  0.87967620  0.20846674     0.86400
C668        C  0.36887027  0.92021436  0.20765321    -0.53800
C669        C  0.39063862  0.93769851  0.24129499     0.09400
C670        C  0.39735084  0.91211593  0.27269868     0.20300
C671        C  0.38740272  0.87341807  0.21055270    -0.54500
C672        C  0.41207459  0.89202279  0.24104138     0.09500
C673        C  0.33561602  0.86747798  0.25503133    -0.54000
C674        C  0.35787142  0.88273892  0.28916788     0.10000
H675        H  0.35788837  0.93300080  0.18671958     0.14600
H676        H  0.41564149  0.92600203  0.29964543     0.00300
H677        H  0.38934215  0.85338678  0.19009656     0.14900
H678        H  0.30846907  0.84519951  0.26168287     0.14700
C679        C  0.33573510  0.00320515  0.09841749    -0.12300
C680        C  0.31491076  0.02145492  0.10329167     0.04700
C681        C  0.31815483  0.54101888  0.14175586    -0.07600
C682        C  0.33953763  0.53954178  0.17561859    -0.08300
C683        C  0.35773024  0.51816168  0.17297192    -0.02900
C684        C  0.35749844  0.00192035  0.13199491     0.03900
N685        N  0.37710554  0.98219172  0.12371201     0.66400
H686        H  0.33443936  0.98894445  0.06827924     0.15300
H687        H  0.34057590  0.55433654  0.20513437     0.15000
N688        N  0.29748774  0.56004360  0.14870998     0.74100
O689        O  0.35910226  0.95069237  0.11072050    -0.39300
O690        O  0.41108761  0.49914764  0.11283932    -0.39300
O691        O  0.26711737  0.04545365  0.17108397    -0.40000
O692        O  0.31269143  0.59320646  0.14024743    -0.40000
C693        C  0.33797930  0.53558200  0.33842265    -0.12300
C694        C  0.35907160  0.51728069  0.33970024     0.04700
C695        C  0.36437743  0.00641449  0.38211313    -0.07600
C696        C  0.33948689  0.00355614  0.41755938    -0.08300
C697        C  0.31466920  0.01715121  0.41372405    -0.02900
C698        C  0.31612669  0.53580765  0.37488670     0.03900
N699        N  0.29500011  0.55445678  0.37149201     0.66400
H700        H  0.33818307  0.54999469  0.30891745     0.15300
H701        H  0.34051109  0.99224482  0.44914640     0.15000
N702        N  0.39552154  0.00087129  0.39121193     0.74100
O703        O  0.26481797  0.53986160  0.35313517    -0.39300
O704        O  0.31019039  0.08769057  0.37743825    -0.39300
O705        O  0.42323380  0.51155503  0.36432464    -0.40000
O706        O  0.39849752  0.99154247  0.42970823    -0.40000
C707        C  0.13924390  0.95839119  0.35046591    -0.12300
C708        C  0.11566998  0.47417074  0.35396259     0.04700
C709        C  0.11283652  0.48879509  0.39534287    -0.07600
C710        C  0.13851895  0.49445742  0.42713916    -0.08300
C711        C  0.16513773  0.98285663  0.42060564    -0.02900
C712        C  0.16386389  0.96272168  0.38304319     0.03900
N713        N  0.18882778  0.94822910  0.37607908     0.66400
H714        H  0.13956300  0.94322213  0.32192100     0.15300
H715        H  0.13733447  0.50759573  0.45744024     0.15000
N716        N  0.08427601  0.49834100  0.40545793     0.74100
O717        O  0.21840116  0.96573212  0.35289811    -0.39300
O718        O  0.17754269  0.91535839  0.38369503    -0.39300
O719        O  0.05247949  0.47404217  0.41733418    -0.40000
O720        O  0.09258919  0.53043920  0.41327462    -0.40000
C721        C  0.15003424  0.96160699  0.13559468    -0.12300
C722        C  0.16488167  0.99281243  0.10905419     0.04700
C723        C  0.15548010  0.52020777  0.12017328    -0.07600
C724        C  0.13408326  0.51695999  0.15903915    -0.08300
C725        C  0.12195874  0.48697602  0.18716907    -0.02900
C726        C  0.12879429  0.95840649  0.17430570     0.03900
N727        N  0.11459944  0.92595447  0.20019084     0.66400
H728        H  0.15598913  0.93987666  0.12728340     0.15300
H729        H  0.12860780  0.53882689  0.16837499     0.15000
N730        N  0.16790890  0.55178191  0.09307748     0.74100
O731        O  0.08516592  0.89954708  0.18979104    -0.39300
O732        O  0.13607035  0.42048550  0.22344252    -0.39300
O733        O  0.14668728  0.05364351  0.06588604    -0.40000
O734        O  0.19573014  0.58001797  0.10329388    -0.40000
C735        C  0.02475225  0.85874316  0.08383790    -0.12300
C736        C  0.50704956  0.82119155  0.08738034     0.04700
C737        C  0.48669037  0.80461114  0.12684533    -0.07600
C738        C  0.48432291  0.82527198  0.16155721    -0.08300
C739        C  0.50305233  0.86307444  0.15954404    -0.02900
C740        C  0.02207762  0.87972639  0.11880264     0.03900
N741        N  0.03513842  0.91698630  0.11020555     0.66400
H742        H  0.03907882  0.87179805  0.05283719     0.15300
H743        H  0.46725667  0.81115027  0.19066978     0.15000
N744        N  0.46922624  0.76662507  0.13300969     0.74100
O745        O  0.06906335  0.93697916  0.10154408    -0.39300
O746        O  0.01250333  0.92770413  0.10023152    -0.39300
O747        O  0.48606203  0.75247599  0.15166513    -0.40000
O748        O  0.43490627  0.74876971  0.12986208    -0.40000
C749        C  0.52682307  0.86843167  0.33351816    -0.12300
C750        C  0.49183571  0.86331713  0.32397780     0.04700
C751        C  0.46127051  0.84162989  0.35223610    -0.07600
C752        C  0.46586699  0.82394823  0.38844088    -0.08300
C753        C  0.50080596  0.82776297  0.39700474    -0.02900
C754        C  0.53176484  0.85173742  0.37010562     0.03900
N755        N  0.56827326  0.85830727  0.37799076     0.66400
H756        H  0.55050383  0.88478908  0.31146730     0.15300
H757        H  0.44169835  0.80598121  0.40870771     0.15000
N758        N  0.42514277  0.83518437  0.34278734     0.74100
O759        O  0.58397239  0.84506901  0.35297981    -0.39300
O760        O  0.08706444  0.88265345  0.40384122    -0.39300
O761        O  0.40608528  0.80955342  0.31862043    -0.40000
O762        O  0.90979013  0.84980777  0.36586309    -0.40000
C763        C  0.49023527  0.66210286  0.38686871    -0.12300
C764        C  0.50843640  0.69930165  0.38114184     0.04700
C765        C  0.02519708  0.71380534  0.33926874    -0.07600
C766        C  0.02269454  0.69108955  0.30412806    -0.08300
C767        C  0.50308962  0.65326031  0.30872538    -0.02900
C768        C  0.48796752  0.63906957  0.35207592     0.03900
N769        N  0.47031010  0.60174181  0.36283127     0.66400
H770        H  0.47796219  0.65062515  0.41927247     0.15300
H771        H  0.03621575  0.70363537  0.27265803     0.15000
N772        N  0.04290060  0.75157258  0.33100516     0.74100
O773        O  0.49033234  0.58758128  0.37132790    -0.39300
O774        O  0.43795965  0.58788240  0.38039586    -0.39300
O775        O  0.07751540  0.76850232  0.32545083    -0.40000
O776        O  0.02393824  0.76648152  0.32076136    -0.40000
C777        C  0.48814445  0.65683934  0.07193775    -0.12300
C778        C  0.51452975  0.69284598  0.07208117     0.04700
C779        C  0.53965149  0.70461074  0.10555718    -0.07600
C780        C  0.53583509  0.68100877  0.14005256    -0.08300
C781        C  0.50731664  0.64534791  0.14237429    -0.02900
C782        C  0.48495765  0.63278242  0.10553055     0.03900
N783        N  0.46071897  0.59586554  0.09921590     0.66400
H784        H  0.46993111  0.64708231  0.04498204     0.15300
H785        H  0.55447430  0.69119153  0.16653680     0.15000
N786        N  0.56761615  0.74095404  0.10677794     0.74100
O787        O  0.92661894  0.58546676  0.09779479    -0.39300
O788        O  0.47389910  0.57631718  0.08371414    -0.39300
O789        O  0.06220288  0.76252764  0.13094525    -0.40000
O790        O  0.59987543  0.74925274  0.09182763    -0.40000
C791        C  0.33176113  0.83899311  0.09287311    -0.12300
C792        C  0.29589903  0.81180166  0.10106306     0.04700
C793        C  0.27718842  0.80993243  0.14189575    -0.07600
C794        C  0.29502421  0.83430274  0.17456728    -0.08300
C795        C  0.33237995  0.86009713  0.16851633    -0.02900
C796        C  0.35013751  0.86337880  0.12550360     0.03900
N797        N  0.38733728  0.88985691  0.11430192     0.66400
H798        H  0.34566788  0.84148120  0.06067498     0.15300
H799        H  0.27903159  0.83189152  0.20484818     0.15000
N800        N  0.24055282  0.78202089  0.15165511     0.74100
O801        O  0.41228841  0.88063926  0.11517037    -0.39300
O802        O  0.39256566  0.91471954  0.08751689    -0.39300
O803        O  0.23586251  0.75335018  0.16998743    -0.40000
O804        O  0.21385866  0.78884855  0.15107595    -0.40000
C805        C  0.31687936  0.85352354  0.40758725    -0.12300
C806        C  0.30353932  0.81660481  0.40567407     0.04700
C807        C  0.31341685  0.80261908  0.36796125    -0.07600
C808        C  0.33402122  0.82535016  0.33217526    -0.08300
C809        C  0.34614718  0.86244760  0.33289008    -0.02900
C810        C  0.33870084  0.87641205  0.37225172     0.03900
N811        N  0.35422589  0.91373216  0.37818045     0.66400
H812        H  0.31109528  0.86481396  0.43722699     0.15300
H813        H  0.33928023  0.81363746  0.30259245     0.15000
N814        N  0.30062326  0.76505934  0.36406663     0.74100
O815        O  0.33313375  0.92677293  0.38947439    -0.39300
O816        O  0.38783677  0.93052367  0.38600521    -0.39300
O817        O  0.27261169  0.74689643  0.34264329    -0.40000
O818        O  0.32168880  0.75210253  0.37268726    -0.40000
C819        C  0.19321707  0.67015857  0.38215041    -0.12300
C820        C  0.17825178  0.68667323  0.41019451     0.05600
C821        C  0.14331555  0.68354402  0.40230244    -0.07600
C822        C  0.12492881  0.66534670  0.36555004    -0.08300
C823        C  0.14015443  0.64911566  0.33671673    -0.02900
C824        C  0.17462992  0.65115124  0.34624707     0.03900
N825        N  0.19143548  0.63389918  0.32015663     0.66400
H826        H  0.21984235  0.67206828  0.38785901     0.15300
H827        H  0.09816630  0.66320478  0.36110609     0.15000
N828        N  0.12523940  0.69722417  0.43229010     0.74100
O829        O  0.22199513  0.65309276  0.29966773    -0.39300
O830        O  0.18307128  0.60189887  0.32961076    -0.39300
O831        O  0.12304132  0.72491883  0.42164338    -0.40000
O832        O  0.10543124  0.67793969  0.46471222    -0.40000
C833        C  0.20095138  0.67277778  0.13167649    -0.12300
C834        C  0.17928366  0.67607307  0.09994237     0.04700
C835        C  0.14105313  0.65303333  0.10293551    -0.07600
C836        C  0.12508849  0.62941823  0.13968915    -0.08300
C837        C  0.14643724  0.62995151  0.17460893    -0.02900
C838        C  0.18521676  0.64988643  0.16837266     0.03900
N839        N  0.20921584  0.64755299  0.19911569     0.66400
H840        H  0.23066881  0.68871560  0.12834001     0.15300
H841        H  0.09584598  0.61170931  0.14158716     0.15000
N842        N  0.11833960  0.65275218  0.06884032     0.74100
O843        O  0.23545023  0.67588910  0.21218522    -0.39300
O844        O  0.20960624  0.61821320  0.20464167    -0.39300
O845        O  0.10961785  0.62923043  0.03981212    -0.40000
O846        O  0.10087115  0.67046322  0.07321247    -0.40000
O847        O  0.19272113  0.73203964  0.96212966    -0.74500
O848        O  0.24846070  0.79085080  0.55223321    -0.74500
O849        O  0.25350958  0.79625448  0.96190594    -0.74600
O850        O  0.18948334  0.72515135  0.55073135    -0.74600
O851        O  0.22818704  0.70186144  0.54642733    -0.74500
O852        O  0.28859352  0.76904554  0.95681298    -0.74500
O853        O  0.28712125  0.76748360  0.54690066    -0.74500
O854        O  0.22808042  0.70514937  0.95796781    -0.74600
Ni855      Ni  0.21984043  0.76213473  0.00691639     1.25400
Ni856      Ni  0.25936278  0.73503454  0.50193081     1.25400
C857        C  0.20056912  0.70868608  0.94549282     0.87700
C858        C  0.27641419  0.78880396  0.56494124     0.87600
C859        C  0.28079159  0.79307965  0.94351095     0.87700
C860        C  0.19909256  0.70185729  0.56317615     0.87800
O861        O  0.47820596  0.71610208  0.93916866    -0.74500
O862        O  0.47749463  0.77402943  0.53694361    -0.74500
O863        O  0.47424623  0.77805664  0.94803556    -0.74600
O864        O  0.48143387  0.71243444  0.52794014    -0.74600
O865        O  0.04269994  0.74368971  0.52216311    -0.74500
O866        O  0.03536812  0.80851530  0.94047806    -0.74500
O867        O  0.03864189  0.80579324  0.52919044    -0.74500
O868        O  0.03943686  0.74682667  0.93186180    -0.74600
Ni869      Ni  0.47571211  0.74409341  0.48825273     1.25400
Ni870      Ni  0.04124561  0.77723863  0.48067754     1.25400
C871        C  0.50884064  0.72202553  0.91909486     0.87700
C872        C  0.50784950  0.79940192  0.54921318     0.87600
C873        C  0.50367080  0.80396244  0.93057486     0.87700
C874        C  0.51308065  0.71756255  0.53895083     0.87800
O875        O  0.28437916  0.54250138  0.55358610    -0.74500
O876        O  0.21224583  0.52307655  0.96629078    -0.74500
O877        O  0.21259263  0.52776256  0.55511949    -0.74600
O878        O  0.28439083  0.53937109  0.96346008    -0.74600
O879        O  0.26879481  0.98138868  0.96873360    -0.74500
O880        O  0.19538360  0.96954625  0.55969467    -0.74500
O881        O  0.19694479  0.96516499  0.97034020    -0.74500
O882        O  0.26722348  0.98421065  0.55769012    -0.74600
Ni883      Ni  0.24907689  0.53528271  0.00941414     1.25400
Ni884      Ni  0.23147229  0.97302752  0.01439184     1.25400
C885        C  0.28753574  0.01613055  0.56998129     0.87700
C886        C  0.19286366  0.99079633  0.95395098     0.87600
C887        C  0.19191319  0.99682871  0.57243602     0.87700
C888        C  0.28817336  0.01245613  0.95064295     0.87800
C889        C  0.49749789  0.88251274  0.70029826     0.86400
C890        C  0.46003119  0.88058845  0.70105722    -0.53800
C891        C  0.44933167  0.89302966  0.73797389     0.09400
C892        C  0.47948408  0.90726475  0.77211481     0.20300
C893        C  0.02357545  0.92223737  0.70810706    -0.54500
C894        C  0.01531827  0.93517988  0.74664199     0.09500
C895        C  0.49777060  0.86392113  0.74345275    -0.54000
C896        C  0.48781643  0.87603143  0.78055870     0.10000
H897        H  0.44413232  0.87021596  0.67265972     0.14600
H898        H  0.47201810  0.91756129  0.80259957     0.00300
H899        H  0.04896054  0.93718482  0.68848509     0.14900
H900        H  0.50671304  0.84354100  0.74491075     0.14700
C901        C  0.50208848  0.62430151  0.68584854     0.86400
C902        C  0.03558095  0.61882861  0.69405467    -0.53800
C903        C  0.03394246  0.60298685  0.73376481     0.09400
C904        C  0.49870066  0.59466047  0.76272249     0.20300
C905        C  0.46873363  0.58720132  0.69320225    -0.54500
C906        C  0.46676241  0.57148569  0.73285770     0.09500
C907        C  0.49874997  0.64529168  0.72617392    -0.54000
C908        C  0.49849491  0.63125199  0.76706275     0.10000
H909        H  0.06009665  0.63041165  0.67222889     0.14600
H910        H  0.49757086  0.58118770  0.79421531     0.00300
H911        H  0.44577035  0.57535498  0.67248504     0.14900
H912        H  0.49786048  0.67031656  0.72198545     0.14700
C913        C  0.11940968  0.62725217  0.79815302     0.86400
C914        C  0.08289822  0.62552522  0.78635285    -0.53800
C915        C  0.06719037  0.60389504  0.75182095     0.09400
C916        C  0.09000067  0.58572488  0.73180777     0.20300
C917        C  0.10928179  0.58863247  0.80648981    -0.54500
C918        C  0.09607611  0.56636760  0.77189549     0.09500
C919        C  0.14317425  0.63892654  0.75498026    -0.54000
C920        C  0.12857383  0.61762576  0.71993137     0.10000
H921        H  0.07080076  0.64092146  0.80187882     0.14600
H922        H  0.07747788  0.56826345  0.70363805     0.00300
H923        H  0.11194000  0.58033131  0.83918106     0.14900
H924        H  0.16851641  0.66401996  0.75204424     0.14700
C925        C  0.09984739  0.48166054  0.81228338     0.86400
C926        C  0.10587723  0.51971601  0.81039752    -0.53800
C927        C  0.09203626  0.52907026  0.77546354     0.09400
C928        C  0.07549248  0.49834590  0.74221653     0.20300
C929        C  0.05833635  0.95846194  0.80695152    -0.54500
C930        C  0.04570818  0.96545252  0.76888903     0.09500
C931        C  0.11874329  0.47941146  0.76819914    -0.54000
C932        C  0.10600118  0.48756710  0.73174842     0.10000
H933        H  0.12284822  0.53815352  0.83417382     0.14600
H934        H  0.06519589  0.50531833  0.71261248     0.00300
H935        H  0.04165621  0.93589819  0.82884200     0.14900
H936        H  0.14240367  0.47470783  0.76535224     0.14700
C937        C  0.37635809  0.51208836  0.79613671     0.86400
C938        C  0.37929023  0.97749897  0.79222324    -0.53800
C939        C  0.39529600  0.97397064  0.75333412     0.09400
C940        C  0.40764256  0.50706177  0.72098703     0.20300
C941        C  0.41494656  0.54224436  0.78672098    -0.54500
C942        C  0.43212911  0.53991375  0.74869905     0.09500
C943        C  0.35556778  0.51160334  0.75505477    -0.54000
C944        C  0.37232579  0.51117077  0.71505557     0.10000
H945        H  0.36621792  0.95589470  0.81636462     0.14600
H946        H  0.42210992  0.50545183  0.69008901     0.00300
H947        H  0.42653677  0.56586503  0.80667460     0.14900
H948        H  0.32906632  0.01131552  0.75731545     0.14700
C949        C  0.35425415  0.87967629  0.70846671     0.86400
C950        C  0.36887052  0.92021444  0.70765312    -0.53800
C951        C  0.39063886  0.93769862  0.74129487     0.09400
C952        C  0.39735112  0.91211607  0.77269859     0.20300
C953        C  0.38740299  0.87341818  0.71055264    -0.54500
C954        C  0.41207487  0.89202292  0.74104130     0.09500
C955        C  0.33561630  0.86747809  0.75503131    -0.54000
C956        C  0.35787173  0.88273906  0.78916784     0.10000
H957        H  0.35788862  0.93300087  0.68671943     0.14600
H958        H  0.41564180  0.92600220  0.79964532     0.00300
H959        H  0.38934242  0.85338690  0.69009648     0.14900
H960        H  0.30846939  0.84519962  0.76168288     0.14700
C961        C  0.33573506  0.00320518  0.59841729    -0.12300
C962        C  0.31491069  0.02145493  0.60329150     0.04700
C963        C  0.31815455  0.54101868  0.64175592    -0.07600
C964        C  0.33953732  0.53954160  0.67561870    -0.08300
C965        C  0.35773010  0.51816166  0.67297200    -0.02900
C966        C  0.35749835  0.00192033  0.63199474     0.03900
N967        N  0.37710552  0.98219177  0.62371178     0.66400
H968        H  0.33443938  0.98894456  0.56827899     0.15300
H969        H  0.34057544  0.55433626  0.70513453     0.15000
N970        N  0.29748729  0.56004323  0.64871005     0.74100
O971        O  0.35910232  0.95069241  0.61072027    -0.39300
O972        O  0.41108786  0.49914814  0.61283924    -0.39300
O973        O  0.26711733  0.04545371  0.67108398    -0.40000
O974        O  0.31269093  0.59320615  0.64024791    -0.40000
C975        C  0.33797927  0.53558204  0.83842274    -0.12300
C976        C  0.35907159  0.51728075  0.83970033     0.04700
C977        C  0.36437735  0.00641442  0.88211303    -0.07600
C978        C  0.33948686  0.00355603  0.91755938    -0.08300
C979        C  0.31466896  0.01715086  0.91372408    -0.02900
C980        C  0.31612667  0.53580769  0.87488681     0.03900
N981        N  0.29500011  0.55445685  0.87149214     0.66400
H982        H  0.33818301  0.54999471  0.80891753     0.15300
H983        H  0.34051126  0.99224489  0.94914643     0.15000
N984        N  0.39552160  0.00087142  0.89121174     0.74100
O985        O  0.26481802  0.53986173  0.85313517    -0.39300
O986        O  0.31018934  0.08768970  0.87743822    -0.39300
O987        O  0.42323381  0.51155512  0.86432466    -0.40000
O988        O  0.39849770  0.99154264  0.92970801    -0.40000
C989        C  0.13924415  0.95839117  0.85046590    -0.12300
C990        C  0.11567020  0.47417072  0.85396239     0.04700
C991        C  0.11283649  0.48879486  0.89534273    -0.07600
C992        C  0.13851885  0.49445726  0.92713912    -0.08300
C993        C  0.16513772  0.98285643  0.92060581    -0.02900
C994        C  0.16386395  0.96272149  0.88304336     0.03900
N995        N  0.18882760  0.94822860  0.87607956     0.66400
H996        H  0.13956333  0.94322216  0.82192097     0.15300
H997        H  0.13733418  0.50759542  0.95744026     0.15000
N998        N  0.08427576  0.49834047  0.90545775     0.74100
O999        O  0.21840095  0.96573123  0.85289838    -0.39300
O1000       O  0.17754229  0.91535792  0.88369603    -0.39300
O1001       O  0.05247939  0.47404149  0.91733426    -0.40000
O1002       O  0.09258865  0.53043864  0.91327417    -0.40000
C1003       C  0.15003436  0.96160692  0.63559450    -0.12300
C1004       C  0.16488163  0.99281232  0.60905393     0.04700
C1005       C  0.15548012  0.52020766  0.62017315    -0.07600
C1006       C  0.13408325  0.51695986  0.65903900    -0.08300
C1007       C  0.12195868  0.48697586  0.68716888    -0.02900
C1008       C  0.12879450  0.95840644  0.67430560     0.03900
N1009       N  0.11459976  0.92595445  0.70019078     0.66400
H1010       H  0.15598931  0.93987663  0.62728322     0.15300
H1011       H  0.12860784  0.53882678  0.66837490     0.15000
N1012       N  0.16790902  0.55178187  0.59307745     0.74100
O1013       O  0.08516620  0.89954704  0.68979112    -0.39300
O1014       O  0.13607014  0.42048531  0.72344237    -0.39300
O1015       O  0.14668679  0.05364298  0.56588562    -0.40000
O1016       O  0.19573036  0.58001783  0.60329385    -0.40000
C1017       C  0.02475236  0.85874312  0.58383779    -0.12300
C1018       C  0.50704977  0.82119166  0.58738023     0.04700
C1019       C  0.48669059  0.80461126  0.62684522    -0.07600
C1020       C  0.48432314  0.82527211  0.66155708    -0.08300
C1021       C  0.50305261  0.86307457  0.65954392    -0.02900
C1022       C  0.02207778  0.87972636  0.61880255     0.03900
N1023       N  0.03513857  0.91698627  0.61020547     0.66400
H1024       H  0.03907888  0.87179802  0.55283705     0.15300
H1025       H  0.46725690  0.81115041  0.69066966     0.15000
N1026       N  0.46922648  0.76662520  0.63300961     0.74100
O1027       O  0.06906348  0.93697911  0.60154381    -0.39300
O1028       O  0.01250345  0.92770412  0.60023165    -0.39300
O1029       O  0.48606244  0.75247612  0.65166466    -0.40000
O1030       O  0.43490644  0.74876987  0.62986248    -0.40000
C1031       C  0.52682327  0.86843181  0.83351826    -0.12300
C1032       C  0.49183592  0.86331718  0.82397770     0.04700
C1033       C  0.46127065  0.84162988  0.85223587    -0.07600
C1034       C  0.46586705  0.82394821  0.88844070    -0.08300
C1035       C  0.50080602  0.82776305  0.89700478    -0.02900
C1036       C  0.53176496  0.85173761  0.87010583     0.03900
N1037       N  0.56827340  0.85830770  0.87799135     0.66400
H1038       H  0.55050409  0.88478928  0.81146751     0.15300
H1039       H  0.44169836  0.80598112  0.90870741     0.15000
N1040       N  0.42514295  0.83518436  0.84278698     0.74100
O1041       O  0.58397283  0.84506958  0.85298066    -0.39300
O1042       O  0.08706431  0.88265369  0.90384184    -0.39300
O1043       O  0.40608547  0.80955336  0.81862014    -0.40000
O1044       O  0.90979050  0.84980818  0.86586290    -0.40000
C1045       C  0.49023523  0.66210292  0.88686865    -0.12300
C1046       C  0.50843635  0.69930171  0.88114180     0.04700
C1047       C  0.02519704  0.71380544  0.83926881    -0.07600
C1048       C  0.02269457  0.69108968  0.80412813    -0.08300
C1049       C  0.50308963  0.65326039  0.80872532    -0.02900
C1050       C  0.48796750  0.63906964  0.85207586     0.03900
N1051       N  0.47031011  0.60174189  0.86283121     0.66400
H1052       H  0.47796215  0.65062520  0.91927240     0.15300
H1053       H  0.03621578  0.70363553  0.77265811     0.15000
N1054       N  0.04290044  0.75157268  0.83100523     0.74100
O1055       O  0.49033236  0.58758137  0.87132786    -0.39300
O1056       O  0.43795967  0.58788246  0.88039582    -0.39300
O1057       O  0.07751519  0.76850245  0.82545029    -0.40000
O1058       O  0.02393790  0.76648159  0.82076206    -0.40000
C1059       C  0.48814467  0.65683941  0.57193767    -0.12300
C1060       C  0.51452997  0.69284605  0.57208112     0.04700
C1061       C  0.53965171  0.70461078  0.60555711    -0.07600
C1062       C  0.53583529  0.68100881  0.64005249    -0.08300
C1063       C  0.50731681  0.64534796  0.64237422    -0.02900
C1064       C  0.48495785  0.63278247  0.60553045     0.03900
N1065       N  0.46071925  0.59586559  0.59921574     0.66400
H1066       H  0.46993134  0.64708240  0.54498194     0.15300
H1067       H  0.55447451  0.69119154  0.66653674     0.15000
N1068       N  0.56761642  0.74095407  0.60677786     0.74100
O1069       O  0.92661942  0.58546658  0.59779412    -0.39300
O1070       O  0.47389948  0.57631729  0.58371403    -0.39300
O1071       O  0.06220289  0.76252772  0.63094525    -0.40000
O1072       O  0.59987576  0.74925267  0.59182788    -0.40000
C1073       C  0.33176119  0.83899308  0.59287317    -0.12300
C1074       C  0.29589905  0.81180173  0.60106318     0.04700
C1075       C  0.27718850  0.80993258  0.64189588    -0.07600
C1076       C  0.29502437  0.83430292  0.67456737    -0.08300
C1077       C  0.33238014  0.86009720  0.66851635    -0.02900
C1078       C  0.35013766  0.86337877  0.62550363     0.03900
N1079       N  0.38733750  0.88985672  0.61430196     0.66400
H1080       H  0.34566790  0.84148110  0.56067505     0.15300
H1081       H  0.27903181  0.83189179  0.70484822     0.15000
N1082       N  0.24055291  0.78202107  0.65165535     0.74100
O1083       O  0.41228841  0.88063874  0.61516985    -0.39300
O1084       O  0.39256604  0.91471971  0.58751745    -0.39300
O1085       O  0.23586262  0.75335021  0.66998726    -0.40000
O1086       O  0.21385880  0.78884885  0.65107680    -0.40000
C1087       C  0.31687963  0.85352358  0.90758718    -0.12300
C1088       C  0.30353959  0.81660485  0.90567396     0.04700
C1089       C  0.31341722  0.80261917  0.86796116    -0.07600
C1090       C  0.33402158  0.82535028  0.83217519    -0.08300
C1091       C  0.34614751  0.86244772  0.83289003    -0.02900
C1092       C  0.33870116  0.87641213  0.87225170     0.03900
N1093       N  0.35422624  0.91373223  0.87818051     0.66400
H1094       H  0.31109550  0.86481397  0.93722693     0.15300
H1095       H  0.33928064  0.81363761  0.80259237     0.15000
N1096       N  0.30062379  0.76505945  0.86406656     0.74100
O1097       O  0.33313409  0.92677300  0.88947444    -0.39300
O1098       O  0.38783709  0.93052370  0.88600540    -0.39300
O1099       O  0.27261232  0.74689645  0.84264311    -0.40000
O1100       O  0.32168943  0.75210278  0.87268730    -0.40000
C1101       C  0.19321705  0.67015843  0.88215029    -0.12300
C1102       C  0.17825186  0.68667324  0.91019429     0.05600
C1103       C  0.14331569  0.68354417  0.90230212    -0.07600
C1104       C  0.12492890  0.66534674  0.86554982    -0.08300
C1105       C  0.14015439  0.64911552  0.83671664    -0.02900
C1106       C  0.17462987  0.65115107  0.84624699     0.03900
N1107       N  0.19143542  0.63389900  0.82015654     0.66400
H1108       H  0.21984231  0.67206807  0.88785893     0.15300
H1109       H  0.09816643  0.66320494  0.86110579     0.15000
N1110       N  0.12523971  0.69722466  0.93228952     0.74100
O1111       O  0.22199513  0.65309257  0.79966777    -0.39300
O1112       O  0.18307112  0.60189864  0.82961057    -0.39300
O1113       O  0.12304208  0.72491951  0.92164257    -0.40000
O1114       O  0.10543122  0.67794033  0.96471155    -0.40000
C1115       C  0.20095127  0.67277769  0.63167653    -0.12300
C1116       C  0.17928356  0.67607302  0.59994245     0.04700
C1117       C  0.14105302  0.65303323  0.60293553    -0.07600
C1118       C  0.12508843  0.62941806  0.63968909    -0.08300
C1119       C  0.14643714  0.62995133  0.67460888    -0.02900
C1120       C  0.18521666  0.64988630  0.66837265     0.03900
N1121       N  0.20921575  0.64755293  0.69911571     0.66400
H1122       H  0.23066873  0.68871556  0.62834008     0.15300
H1123       H  0.09584578  0.61170905  0.64158708     0.15000
N1124       N  0.11833949  0.65275218  0.56884041     0.74100
O1125       O  0.23544996  0.67588910  0.71218543    -0.39300
O1126       O  0.20960645  0.61821325  0.70464145    -0.39300
O1127       O  0.10961688  0.62922991  0.53981281    -0.40000
O1128       O  0.10087183  0.67046401  0.57321218    -0.40000
O1129       O  0.69272100  0.23203954  0.46213028    -0.74500
O1130       O  0.74846055  0.29085064  0.05223346    -0.74500
O1131       O  0.75350939  0.29625446  0.46190648    -0.74600
O1132       O  0.68948317  0.22515122  0.05073157    -0.74600
O1133       O  0.72818680  0.20186126  0.04642739    -0.74500
O1134       O  0.78859341  0.26904561  0.45681347    -0.74500
O1135       O  0.78712103  0.26748336  0.04690082    -0.74500
O1136       O  0.72808038  0.20514937  0.45796841    -0.74600
Ni1137     Ni  0.71984032  0.26213470  0.50691697     1.25400
Ni1138     Ni  0.75936253  0.23503440  0.00193090     1.25400
C1139       C  0.70056902  0.20868600  0.44549346     0.87700
C1140       C  0.77641400  0.28880373  0.06494147     0.87600
C1141       C  0.78079140  0.29307967  0.44351144     0.87700
C1142       C  0.69909238  0.20185715  0.06317631     0.87800
O1143       O  0.97820585  0.21610208  0.43916876    -0.74500
O1144       O  0.97749460  0.27402961  0.03694361    -0.74500
O1145       O  0.97424619  0.27805669  0.44803550    -0.74600
O1146       O  0.98143374  0.21243455  0.02794019    -0.74600
O1147       O  0.54270003  0.24368961  0.02216316    -0.74500
O1148       O  0.53536799  0.30851518  0.44047790    -0.74500
O1149       O  0.53864188  0.30579311  0.02919052    -0.74500
O1150       O  0.53943686  0.24682662  0.43186165    -0.74600
Ni1151     Ni  0.97571207  0.24409357  0.98825274     1.25400
Ni1152     Ni  0.54124570  0.27723854  0.98067760     1.25400
C1153       C  0.00884052  0.22202548  0.41909496     0.87700
C1154       C  0.00784948  0.29940208  0.04921320     0.87600
C1155       C  0.00367077  0.30396246  0.43057475     0.87700
C1156       C  0.01308049  0.21756262  0.03895093     0.87800
O1157       O  0.78437926  0.04250167  0.05358620    -0.74500
O1158       O  0.71224567  0.02307647  0.46629091    -0.74500
O1159       O  0.71259268  0.02776279  0.05511986    -0.74600
O1160       O  0.78439071  0.03937115  0.46345997    -0.74600
O1161       O  0.76879477  0.48138876  0.46873356    -0.74500
O1162       O  0.69538347  0.46954619  0.05969507    -0.74500
O1163       O  0.69694475  0.46516504  0.47034016    -0.74500
O1164       O  0.76722336  0.48421059  0.05769048    -0.74600
Ni1165     Ni  0.74907684  0.03528272  0.50941415     1.25400
Ni1166     Ni  0.73147225  0.47302754  0.51439180     1.25400
C1167       C  0.78753566  0.51613051  0.06998158     0.87700
C1168       C  0.69286360  0.49079639  0.45395100     0.87600
C1169       C  0.69191305  0.49682866  0.07243638     0.87700
C1170       C  0.78817332  0.51245622  0.45064295     0.87800
C1171       C  0.99749782  0.38251293  0.20029821     0.86400
C1172       C  0.96003106  0.38058851  0.20105728    -0.53800
C1173       C  0.94933155  0.39302969  0.23797399     0.09400
C1174       C  0.97948403  0.40726489  0.27211482     0.20300
C1175       C  0.52357532  0.42223729  0.20810709    -0.54500
C1176       C  0.51531809  0.43517975  0.24664204     0.09500
C1177       C  0.99777067  0.36392138  0.24345268    -0.54000
C1178       C  0.98781650  0.37603164  0.28055867     0.10000
H1179       H  0.94413212  0.37021592  0.17265986     0.14600
H1180       H  0.97201805  0.41756141  0.30259960     0.00300
H1181       H  0.54896042  0.43718478  0.18848514     0.14900
H1182       H  0.00671315  0.34354127  0.24491064     0.14700
C1183       C  0.00208837  0.12430156  0.18584866     0.86400
C1184       C  0.53558122  0.11882860  0.19405477    -0.53800
C1185       C  0.53394269  0.10298688  0.23376499     0.09400
C1186       C  0.99870069  0.09466051  0.26272255     0.20300
C1187       C  0.96873361  0.08720129  0.19320232    -0.54500
C1188       C  0.96676248  0.07148566  0.23285778     0.09500
C1189       C  0.99874977  0.14529164  0.22617408    -0.54000
C1190       C  0.99849478  0.13125195  0.26706289     0.10000
H1191       H  0.56009686  0.13041164  0.17222911     0.14600
H1192       H  0.99757097  0.08118774  0.29421538     0.00300
H1193       H  0.94577037  0.07535494  0.17248518     0.14900
H1194       H  0.99786019  0.17031649  0.22198567     0.14700
C1195       C  0.61940972  0.12725209  0.29815357     0.86400
C1196       C  0.58289830  0.12552517  0.28635328    -0.53800
C1197       C  0.56719056  0.10389506  0.25182128     0.09400
C1198       C  0.59000088  0.08572492  0.23180818     0.20300
C1199       C  0.60928184  0.08863238  0.30649028    -0.54500
C1200       C  0.59607619  0.06636755  0.27189591     0.09500
C1201       C  0.64317438  0.13892654  0.25498088    -0.54000
C1202       C  0.62857405  0.11762582  0.21993191     0.10000
H1203       H  0.57080082  0.14092139  0.30187924     0.14600
H1204       H  0.57747815  0.06826353  0.20363841     0.00300
H1205       H  0.61194001  0.08033118  0.33918152     0.14900
H1206       H  0.66851648  0.16402001  0.25204495     0.14700
C1207       C  0.59984706  0.98166029  0.31228378     0.86400
C1208       C  0.60587697  0.01971578  0.31039799    -0.53800
C1209       C  0.59203611  0.02907012  0.27546397     0.09400
C1210       C  0.57549233  0.99834581  0.24221689     0.20300
C1211       C  0.55833603  0.45846186  0.30695172    -0.54500
C1212       C  0.54570792  0.46545243  0.26888917     0.09500
C1213       C  0.61874302  0.97941124  0.26819956    -0.54000
C1214       C  0.60600101  0.98756697  0.23174883     0.10000
H1215       H  0.62284797  0.03815324  0.33417430     0.14600
H1216       H  0.56519582  0.00531830  0.21261283     0.00300
H1217       H  0.54165587  0.43589808  0.32884216     0.14900
H1218       H  0.64240339  0.97470761  0.26535270     0.14700
C1219       C  0.87635807  0.01208844  0.29613663     0.86400
C1220       C  0.87929000  0.47749883  0.29222346    -0.53800
C1221       C  0.89529582  0.47397048  0.25333430     0.09400
C1222       C  0.90764258  0.00706175  0.22098707     0.20300
C1223       C  0.91494667  0.04224450  0.28672115    -0.54500
C1224       C  0.93212917  0.03991369  0.24869908     0.09500
C1225       C  0.85556788  0.01160356  0.25505466    -0.54000
C1226       C  0.87232590  0.01117090  0.21505548     0.10000
H1227       H  0.86621775  0.45589485  0.31636449     0.14600
H1228       H  0.92210996  0.00545177  0.19008903     0.00300
H1229       H  0.92653655  0.06586440  0.30667413     0.14900
H1230       H  0.82906652  0.51131585  0.25731539     0.14700
C1231       C  0.85425387  0.37967601  0.20846705     0.86400
C1232       C  0.86887017  0.42021417  0.20765345    -0.53800
C1233       C  0.89063857  0.43769840  0.24129515     0.09400
C1234       C  0.89735090  0.41211590  0.27269885     0.20300
C1235       C  0.88740276  0.37341797  0.21055294    -0.54500
C1236       C  0.91207467  0.39202279  0.24104154     0.09500
C1237       C  0.83561608  0.36747784  0.25503168    -0.54000
C1238       C  0.85787153  0.38273885  0.28916817     0.10000
H1239       H  0.85788819  0.43300053  0.18671985     0.14600
H1240       H  0.91564160  0.42600206  0.29964556     0.00300
H1241       H  0.88934222  0.35338672  0.19009677     0.14900
H1242       H  0.80846916  0.34519939  0.26168330     0.14700
C1243       C  0.83573474  0.50320480  0.09841759    -0.12300
C1244       C  0.81491071  0.52145490  0.10329168     0.04700
C1245       C  0.81815522  0.04101933  0.14175568    -0.07600
C1246       C  0.83953797  0.03954217  0.17561843    -0.08300
C1247       C  0.85773035  0.01816186  0.17297188    -0.02900
C1248       C  0.85749809  0.50191994  0.13199496     0.03900
N1249       N  0.87710480  0.48219093  0.12371217     0.66400
H1250       H  0.83443873  0.48894389  0.06827946     0.15300
H1251       H  0.84057637  0.05433703  0.20513417     0.15000
N1252       N  0.79748836  0.06004430  0.14870968     0.74100
O1253       O  0.85910122  0.45069159  0.11072076    -0.39300
O1254       O  0.91108723  0.99914701  0.11283947    -0.39300
O1255       O  0.76711821  0.54545483  0.17108373    -0.40000
O1256       O  0.81269221  0.09320711  0.14024677    -0.40000
C1257       C  0.83797932  0.03558222  0.33842267    -0.12300
C1258       C  0.85907157  0.01728087  0.33970025     0.04700
C1259       C  0.86437728  0.50641443  0.38211310    -0.07600
C1260       C  0.83948677  0.50355605  0.41755941    -0.08300
C1261       C  0.81466895  0.51715096  0.41372410    -0.02900
C1262       C  0.81612671  0.03580789  0.37488673     0.03900
N1263       N  0.79500026  0.05445716  0.37149210     0.66400
H1264       H  0.83818312  0.04999495  0.30891748     0.15300
H1265       H  0.84051110  0.49224484  0.44914645     0.15000
N1266       N  0.89552146  0.50087133  0.39121185     0.74100
O1267       O  0.76481811  0.03986211  0.35313525    -0.39300
O1268       O  0.81018980  0.58769010  0.37743802    -0.39300
O1269       O  0.92323367  0.01155502  0.36432463    -0.40000
O1270       O  0.89849747  0.49154244  0.42970811    -0.40000
C1271       C  0.63924376  0.45839104  0.35046617    -0.12300
C1272       C  0.61566980  0.97417039  0.35396282     0.04700
C1273       C  0.61283613  0.98879456  0.39534315    -0.07600
C1274       C  0.63851857  0.99445701  0.42713948    -0.08300
C1275       C  0.66513761  0.48285650  0.42060590    -0.02900
C1276       C  0.66386373  0.46272149  0.38304347     0.03900
N1277       N  0.68882750  0.44822877  0.37607944     0.66400
H1278       H  0.63956283  0.44322196  0.32192127     0.15300
H1279       H  0.63733393  0.00759520  0.45744061     0.15000
N1280       N  0.58427542  0.99834019  0.40545820     0.74100
O1281       O  0.71840087  0.46573165  0.35289840    -0.39300
O1282       O  0.67754227  0.41535804  0.38369547    -0.39300
O1283       O  0.55247902  0.97404121  0.41733464    -0.40000
O1284       O  0.59258834  0.03043835  0.41327472    -0.40000
C1285       C  0.65003428  0.46160692  0.13559491    -0.12300
C1286       C  0.66488148  0.49281227  0.10905427     0.04700
C1287       C  0.65548035  0.02020793  0.12017383    -0.07600
C1288       C  0.63408340  0.01696002  0.15903964    -0.08300
C1289       C  0.62195864  0.98697588  0.18716932    -0.02900
C1290       C  0.62879440  0.45840644  0.17430599     0.03900
N1291       N  0.61459971  0.42595449  0.20019124     0.66400
H1292       H  0.65598929  0.43987666  0.12728371     0.15300
H1293       H  0.62860805  0.03882696  0.16837566     0.15000
N1294       N  0.66790944  0.05178228  0.09307836     0.74100
O1295       O  0.58516611  0.39954707  0.18979171    -0.39300
O1296       O  0.63606970  0.92048515  0.22344272    -0.39300
O1297       O  0.64668644  0.55364258  0.06588556    -0.40000
O1298       O  0.69573069  0.08001817  0.10329513    -0.40000
C1299       C  0.52475236  0.35874298  0.08383781    -0.12300
C1300       C  0.00704975  0.32119183  0.08738022     0.04700
C1301       C  0.98669056  0.30461145  0.12684522    -0.07600
C1302       C  0.98432308  0.32527231  0.16155705    -0.08300
C1303       C  0.00305253  0.36307476  0.15954386    -0.02900
C1304       C  0.52207776  0.37972624  0.11880255     0.03900
N1305       N  0.53513859  0.41698615  0.11020545     0.66400
H1306       H  0.53907897  0.37179787  0.05283712     0.15300
H1307       H  0.96725684  0.31115062  0.19066964     0.15000
N1308       N  0.96922648  0.26662539  0.13300965     0.74100
O1309       O  0.56906352  0.43697898  0.10154391    -0.39300
O1310       O  0.51250351  0.42770401  0.10023148    -0.39300
O1311       O  0.98606234  0.25247638  0.15166509    -0.40000
O1312       O  0.93490651  0.24876999  0.12986211    -0.40000
C1313       C  0.02682329  0.36843191  0.33351819    -0.12300
C1314       C  0.99183595  0.36331733  0.32397765     0.04700
C1315       C  0.96127067  0.34163000  0.35223578    -0.07600
C1316       C  0.96586704  0.32394826  0.38844055    -0.08300
C1317       C  0.00080600  0.32776306  0.39700464    -0.02900
C1318       C  0.03176495  0.35173763  0.37010570     0.03900
N1319       N  0.06827338  0.35830766  0.37799117     0.66400
H1320       H  0.05050412  0.38478941  0.31146747     0.15300
H1321       H  0.94169834  0.30598116  0.40870724     0.15000
N1322       N  0.92514298  0.33518453  0.34278690     0.74100
O1323       O  0.08397283  0.34506968  0.35298028    -0.39300
O1324       O  0.58706393  0.38265364  0.40384216    -0.39300
O1325       O  0.90608540  0.30955346  0.31862022    -0.40000
O1326       O  0.40978988  0.34980721  0.36586250    -0.40000
C1327       C  0.99023505  0.16210285  0.38686877    -0.12300
C1328       C  0.00843620  0.19930164  0.38114192     0.04700
C1329       C  0.52519678  0.21380534  0.33926862    -0.07600
C1330       C  0.52269433  0.19108958  0.30412795    -0.08300
C1331       C  0.00308950  0.15326033  0.30872546    -0.02900
C1332       C  0.98796734  0.13906957  0.35207599     0.03900
N1333       N  0.97030992  0.10174182  0.36283131     0.66400
H1334       H  0.97796194  0.15062514  0.41927252     0.15300
H1335       H  0.53621534  0.20363546  0.27265787     0.15000
N1336       N  0.54289984  0.25157256  0.33100495     0.74100
O1337       O  0.99033212  0.08758125  0.37132794    -0.39300
O1338       O  0.93795945  0.08788240  0.38039589    -0.39300
O1339       O  0.57751458  0.26850260  0.32544993    -0.40000
O1340       O  0.52393703  0.26648116  0.32076172    -0.40000
C1341       C  0.98814446  0.15683948  0.07193784    -0.12300
C1342       C  0.01452976  0.19284613  0.07208127     0.04700
C1343       C  0.03965148  0.20461088  0.10555728    -0.07600
C1344       C  0.03583506  0.18100891  0.14005268    -0.08300
C1345       C  0.00731663  0.14534804  0.14237438    -0.02900
C1346       C  0.98495767  0.13278255  0.10553061     0.03900
N1347       N  0.96071908  0.09586566  0.09921590     0.66400
H1348       H  0.96993113  0.14708246  0.04498211     0.15300
H1349       H  0.05447427  0.19119166  0.16653693     0.15000
N1350       N  0.06761620  0.24095416  0.10677801     0.74100
O1351       O  0.42661903  0.08546684  0.09779506    -0.39300
O1352       O  0.97389932  0.07631736  0.08371423    -0.39300
O1353       O  0.56220293  0.26252745  0.13094554    -0.40000
O1354       O  0.09987548  0.24925279  0.09182772    -0.40000
C1355       C  0.83176090  0.33899293  0.09287342    -0.12300
C1356       C  0.79589886  0.31180141  0.10106346     0.04700
C1357       C  0.77718835  0.30993204  0.14189626    -0.07600
C1358       C  0.79502416  0.33430237  0.17456779    -0.08300
C1359       C  0.83237985  0.36009686  0.16851671    -0.02900
C1360       C  0.85013733  0.36337859  0.12550393     0.03900
N1361       N  0.88733711  0.38985667  0.11430222     0.66400
H1362       H  0.84566758  0.34148109  0.06067524     0.15300
H1363       H  0.77903161  0.33189105  0.20484871     0.15000
N1364       N  0.74055287  0.28202033  0.15165579     0.74100
O1365       O  0.91228817  0.38063890  0.11517031    -0.39300
O1366       O  0.89256550  0.41471948  0.08751749    -0.39300
O1367       O  0.73586287  0.25334956  0.16998764    -0.40000
O1368       O  0.71385858  0.28884787  0.15107742    -0.40000
C1369       C  0.81687943  0.35352357  0.40758754    -0.12300
C1370       C  0.80353932  0.31660482  0.40567438     0.04700
C1371       C  0.81341689  0.30261907  0.36796161    -0.07600
C1372       C  0.83402131  0.32535013  0.33217564    -0.08300
C1373       C  0.84614732  0.36244758  0.33289040    -0.02900
C1374       C  0.83870099  0.37641207  0.37225202     0.03900
N1375       N  0.85422615  0.41373218  0.37818074     0.66400
H1376       H  0.81109534  0.36481401  0.43722727     0.15300
H1377       H  0.83928033  0.31363740  0.30259284     0.15000
N1378       N  0.80062329  0.26505932  0.36406703     0.74100
O1379       O  0.83313410  0.42677301  0.38947491    -0.39300
O1380       O  0.88783709  0.43052367  0.38600520    -0.39300
O1381       O  0.77261153  0.24689635  0.34264401    -0.40000
O1382       O  0.82168892  0.25210256  0.37268735    -0.40000
C1383       C  0.69321706  0.17015844  0.38215087    -0.12300
C1384       C  0.67825176  0.18667308  0.41019499     0.05600
C1385       C  0.64331545  0.18354373  0.40230301    -0.07600
C1386       C  0.62492868  0.16534634  0.36555066    -0.08300
C1387       C  0.64015434  0.14911537  0.33671729    -0.02900
C1388       C  0.67462989  0.15115105  0.34624758     0.03900
N1389       N  0.69143548  0.13389904  0.32015711     0.66400
H1390       H  0.71984239  0.17206823  0.38785941     0.15300
H1391       H  0.59816610  0.16320431  0.36110675     0.15000
N1392       N  0.62523927  0.19722384  0.43229071     0.74100
O1393       O  0.72199510  0.15309266  0.29966817    -0.39300
O1394       O  0.68307134  0.10189873  0.32961122    -0.39300
O1395       O  0.62304149  0.22491869  0.42164421    -0.40000
O1396       O  0.60543078  0.17793915  0.46471251    -0.40000
C1397       C  0.70095135  0.17277800  0.13167694    -0.12300
C1398       C  0.67928352  0.17607298  0.09994274     0.04700
C1399       C  0.64105304  0.15303298  0.10293588    -0.07600
C1400       C  0.62508857  0.12941794  0.13968958    -0.08300
C1401       C  0.64643738  0.12995152  0.17460944    -0.02900
C1402       C  0.68521688  0.14988674  0.16837321     0.03900
N1403       N  0.70921610  0.14755373  0.19911637     0.66400
H1404       H  0.73066877  0.18871602  0.12834045     0.15300
H1405       H  0.59584604  0.11170879  0.14158758     0.15000
N1406       N  0.61833943  0.15275155  0.06884063     0.74100
O1407       O  0.73545020  0.17589007  0.21218592    -0.39300
O1408       O  0.70960695  0.11821417  0.20464249    -0.39300
O1409       O  0.60961786  0.12922975  0.03981252    -0.40000
O1410       O  0.60087077  0.17046240  0.07321265    -0.40000
O1411       O  0.69272075  0.23203961  0.96213009    -0.74500
O1412       O  0.74846072  0.29085081  0.55223354    -0.74500
O1413       O  0.75350925  0.29625444  0.96190640    -0.74600
O1414       O  0.68948342  0.22515131  0.55073175    -0.74600
O1415       O  0.72818717  0.20186147  0.54642773    -0.74500
O1416       O  0.78859317  0.26904550  0.95681329    -0.74500
O1417       O  0.78712132  0.26748366  0.54690100    -0.74500
O1418       O  0.72808005  0.20514935  0.95796808    -0.74600
Ni1419     Ni  0.71984012  0.26213465  0.00691684     1.25400
Ni1420     Ni  0.75936284  0.23503456  0.50193117     1.25400
C1421       C  0.70056874  0.20868607  0.94549316     0.87700
C1422       C  0.77641422  0.28880400  0.56494157     0.87600
C1423       C  0.78079124  0.29307963  0.94351133     0.87700
C1424       C  0.69909268  0.20185728  0.56317656     0.87800
O1425       O  0.97820598  0.21610219  0.93916873    -0.74500
O1426       O  0.97749447  0.27402953  0.53694359    -0.74500
O1427       O  0.97424633  0.27805679  0.94803555    -0.74600
O1428       O  0.98143363  0.21243448  0.52794021    -0.74600
O1429       O  0.54269994  0.24368972  0.52216309    -0.74500
O1430       O  0.53536820  0.30851518  0.94047798    -0.74500
O1431       O  0.53864176  0.30579320  0.52919043    -0.74500
O1432       O  0.53943705  0.24682661  0.93186167    -0.74600
Ni1433     Ni  0.97571194  0.24409348  0.48825274     1.25400
Ni1434     Ni  0.54124555  0.27723860  0.48067753     1.25400
C1435       C  0.00884065  0.22202559  0.91909493     0.87700
C1436       C  0.00784934  0.29940200  0.54921318     0.87600
C1437       C  0.00367090  0.30396257  0.93057483     0.87700
C1438       C  0.01308040  0.21756257  0.53895094     0.87800
O1439       O  0.78437924  0.04250154  0.55358611    -0.74500
O1440       O  0.71224567  0.02307656  0.96629105    -0.74500
O1441       O  0.71259267  0.02776264  0.55511972    -0.74600
O1442       O  0.78439069  0.03937117  0.96346005    -0.74600
O1443       O  0.76879475  0.48138879  0.96873369    -0.74500
O1444       O  0.69538356  0.46954623  0.55969499    -0.74500
O1445       O  0.69694471  0.46516503  0.97034026    -0.74500
O1446       O  0.76722341  0.48421057  0.55769039    -0.74600
Ni1447     Ni  0.74907685  0.03528281  0.00941426     1.25400
Ni1448     Ni  0.73147220  0.47302755  0.01439190     1.25400
C1449       C  0.78753567  0.51613048  0.56998153     0.87700
C1450       C  0.69286354  0.49079636  0.95395110     0.87600
C1451       C  0.69191319  0.49682872  0.57243631     0.87700
C1452       C  0.78817330  0.51245627  0.95064311     0.87800
C1453       C  0.99749769  0.38251275  0.70029834     0.86400
C1454       C  0.96003095  0.38058840  0.70105740    -0.53800
C1455       C  0.94933152  0.39302969  0.73797410     0.09400
C1456       C  0.97948402  0.40726486  0.77211490     0.20300
C1457       C  0.52357523  0.42223722  0.70810716    -0.54500
C1458       C  0.51531805  0.43517970  0.74664212     0.09500
C1459       C  0.99777049  0.36392120  0.74345284    -0.54000
C1460       C  0.98781639  0.37603156  0.78055881     0.10000
H1461       H  0.94413205  0.37021579  0.67266012     0.14600
H1462       H  0.97201810  0.41756145  0.80259967     0.00300
H1463       H  0.54896032  0.43718469  0.68848518     0.14900
H1464       H  0.00671294  0.34354108  0.74491085     0.14700
C1465       C  0.00208841  0.12430160  0.68584866     0.86400
C1466       C  0.53558101  0.11882849  0.69405452    -0.53800
C1467       C  0.53394243  0.10298674  0.73376474     0.09400
C1468       C  0.99870062  0.09466048  0.76272254     0.20300
C1469       C  0.96873355  0.08720141  0.69320233    -0.54500
C1470       C  0.96676235  0.07148572  0.73285776     0.09500
C1471       C  0.99874993  0.14529173  0.72617409    -0.54000
C1472       C  0.99849485  0.13125199  0.76706289     0.10000
H1473       H  0.56009659  0.13041144  0.67222889     0.14600
H1474       H  0.99757085  0.08118770  0.79421537     0.00300
H1475       H  0.94577026  0.07535516  0.67248515     0.14900
H1476       H  0.99786048  0.17031665  0.72198571     0.14700
C1477       C  0.61940944  0.12725206  0.79815334     0.86400
C1478       C  0.58289803  0.12552512  0.78635299    -0.53800
C1479       C  0.56719031  0.10389496  0.75182102     0.09400
C1480       C  0.59000067  0.08572483  0.73180799     0.20300
C1481       C  0.60928155  0.08863237  0.80649014    -0.54500
C1482       C  0.59607600  0.06636752  0.77189577     0.09500
C1483       C  0.64317414  0.13892647  0.75498067    -0.54000
C1484       C  0.62857384  0.11762572  0.71993173     0.10000
H1485       H  0.57080051  0.14092132  0.80187891     0.14600
H1486       H  0.57747798  0.06826341  0.70363822     0.00300
H1487       H  0.61193965  0.08033118  0.83918142     0.14900
H1488       H  0.66851628  0.16401991  0.75204475     0.14700
C1489       C  0.59984727  0.98166049  0.81228373     0.86400
C1490       C  0.60587708  0.01971594  0.81039788    -0.53800
C1491       C  0.59203617  0.02907020  0.77546383     0.09400
C1492       C  0.57549252  0.99834587  0.74221676     0.20300
C1493       C  0.55833611  0.45846174  0.80695168    -0.54500
C1494       C  0.54570795  0.46545234  0.76888919     0.09500
C1495       C  0.61874330  0.97941147  0.76819956    -0.54000
C1496       C  0.60600127  0.98756712  0.73174878     0.10000
H1497       H  0.62284799  0.03815345  0.83417423     0.14600
H1498       H  0.56519599  0.00531830  0.71261267     0.00300
H1499       H  0.54165598  0.43589795  0.82884213     0.14900
H1500       H  0.64240370  0.97470787  0.76535276     0.14700
C1501       C  0.87635795  0.01208832  0.79613663     0.86400
C1502       C  0.87929024  0.47749904  0.79222371    -0.53800
C1503       C  0.89529598  0.47397070  0.75333449     0.09400
C1504       C  0.90764257  0.00706174  0.72098706     0.20300
C1505       C  0.91494645  0.04224441  0.78672100    -0.54500
C1506       C  0.93212905  0.03991375  0.74869906     0.09500
C1507       C  0.85556770  0.01160327  0.75505463    -0.54000
C1508       C  0.87232578  0.01117069  0.71505548     0.10000
H1509       H  0.86621814  0.45589508  0.81636482     0.14600
H1510       H  0.92210997  0.00545182  0.69008904     0.00300
H1511       H  0.92653645  0.06586481  0.80667433     0.14900
H1512       H  0.82906635  0.51131566  0.75731589     0.14700
C1513       C  0.85425397  0.37967630  0.70846716     0.86400
C1514       C  0.86887036  0.42021446  0.70765357    -0.53800
C1515       C  0.89063875  0.43769864  0.74129530     0.09400
C1516       C  0.89735099  0.41211607  0.77269900     0.20300
C1517       C  0.88740278  0.37341814  0.71055305    -0.54500
C1518       C  0.91207470  0.39202290  0.74104167     0.09500
C1519       C  0.83561613  0.36747813  0.75503177    -0.54000
C1520       C  0.85787157  0.38273908  0.78916829     0.10000
H1521       H  0.85788843  0.43300088  0.68671997     0.14600
H1522       H  0.91564169  0.42600219  0.79964572     0.00300
H1523       H  0.88934215  0.35338688  0.69009692     0.14900
H1524       H  0.80846918  0.34519970  0.76168337     0.14700
C1525       C  0.83573495  0.50320510  0.59841764    -0.12300
C1526       C  0.81491059  0.52145485  0.60329180     0.04700
C1527       C  0.81815506  0.04101908  0.64175567    -0.07600
C1528       C  0.83953780  0.03954192  0.67561844    -0.08300
C1529       C  0.85773022  0.01816165  0.67297186    -0.02900
C1530       C  0.85749820  0.50192023  0.63199513     0.03900
N1531       N  0.87710521  0.48219151  0.62371228     0.66400
H1532       H  0.83443928  0.48894446  0.56827936     0.15300
H1533       H  0.84057613  0.05433671  0.70513420     0.15000
N1534       N  0.79748811  0.06004395  0.64870971     0.74100
O1535       O  0.85910185  0.45069214  0.61072087    -0.39300
O1536       O  0.91108716  0.99914682  0.61283946    -0.39300
O1537       O  0.76711695  0.54545337  0.67108393    -0.40000
O1538       O  0.81269205  0.09320688  0.64024755    -0.40000
C1539       C  0.83797900  0.03558193  0.83842260    -0.12300
C1540       C  0.85907138  0.01728070  0.83970023     0.04700
C1541       C  0.86437733  0.50641451  0.88211337    -0.07600
C1542       C  0.83948679  0.50355611  0.91755965    -0.08300
C1543       C  0.81466900  0.51715106  0.91372433    -0.02900
C1544       C  0.81612643  0.03580763  0.87488669     0.03900
N1545       N  0.79499987  0.05445678  0.87149199     0.66400
H1546       H  0.83818270  0.04999455  0.80891737     0.15300
H1547       H  0.84051107  0.49224486  0.94914668     0.15000
N1548       N  0.89552154  0.50087147  0.89121215     0.74100
O1549       O  0.76481772  0.03986161  0.85313516    -0.39300
O1550       O  0.81018987  0.58769022  0.87743881    -0.39300
O1551       O  0.92323368  0.01155525  0.86432470    -0.40000
O1552       O  0.89849762  0.49154274  0.92970846    -0.40000
C1553       C  0.63924408  0.45839116  0.85046601    -0.12300
C1554       C  0.61566999  0.97417063  0.85396280     0.04700
C1555       C  0.61283631  0.98879482  0.89534310    -0.07600
C1556       C  0.63851868  0.99445723  0.92713949    -0.08300
C1557       C  0.66513760  0.48285644  0.92060593    -0.02900
C1558       C  0.66386397  0.46272162  0.88304341     0.03900
N1559       N  0.68882788  0.44822906  0.87607944     0.66400
H1560       H  0.63956335  0.44322221  0.82192107     0.15300
H1561       H  0.63733405  0.00759544  0.95744060     0.15000
N1562       N  0.58427557  0.99834042  0.90545812     0.74100
O1563       O  0.71840121  0.46573199  0.85289834    -0.39300
O1564       O  0.67754284  0.41535839  0.88369566    -0.39300
O1565       O  0.55247924  0.97404144  0.91733479    -0.40000
O1566       O  0.59258846  0.03043860  0.91327446    -0.40000
C1567       C  0.65003414  0.46160686  0.63559462    -0.12300
C1568       C  0.66488165  0.49281238  0.60905425     0.04700
C1569       C  0.65548036  0.02020779  0.62017362    -0.07600
C1570       C  0.63408350  0.01695997  0.65903947    -0.08300
C1571       C  0.62195888  0.98697594  0.68716929    -0.02900
C1572       C  0.62879424  0.45840634  0.67430570     0.03900
N1573       N  0.61459937  0.42595430  0.70019078     0.66400
H1574       H  0.65598896  0.43987651  0.62728324     0.15300
H1575       H  0.62860810  0.03882690  0.66837541     0.15000
N1576       N  0.66790933  0.05178206  0.59307801     0.74100
O1577       O  0.58516594  0.39954688  0.68979081    -0.39300
O1578       O  0.63607023  0.92048541  0.72344290    -0.39300
O1579       O  0.64668766  0.55364393  0.56588656    -0.40000
O1580       O  0.69573059  0.08001801  0.60329463    -0.40000
C1581       C  0.52475214  0.35874304  0.58383778    -0.12300
C1582       C  0.00704961  0.32119172  0.58738024     0.04700
C1583       C  0.98669057  0.30461130  0.62684531    -0.07600
C1584       C  0.98432310  0.32527212  0.66155720    -0.08300
C1585       C  0.00305240  0.36307458  0.65954399    -0.02900
C1586       C  0.52207753  0.37972625  0.61880256     0.03900
N1587       N  0.53513827  0.41698616  0.61020550     0.66400
H1588       H  0.53907866  0.37179795  0.55283706     0.15300
H1589       H  0.96725695  0.31115039  0.69066982     0.15000
N1590       N  0.96922665  0.26662525  0.63300974     0.74100
O1591       O  0.56906319  0.43697906  0.60154403    -0.39300
O1592       O  0.51250313  0.42770394  0.60023152    -0.39300
O1593       O  0.98606258  0.25247635  0.65166524    -0.40000
O1594       O  0.93490669  0.24876972  0.62986212    -0.40000
C1595       C  0.02682329  0.36843183  0.83351814    -0.12300
C1596       C  0.99183596  0.36331737  0.82397781     0.04700
C1597       C  0.96127076  0.34163028  0.85223619    -0.07600
C1598       C  0.96586719  0.32394857  0.88844096    -0.08300
C1599       C  0.00080613  0.32776320  0.89700478    -0.02900
C1600       C  0.03176502  0.35173759  0.87010563     0.03900
N1601       N  0.06827343  0.35830742  0.87799083     0.66400
H1602       H  0.05050406  0.38478918  0.81146725     0.15300
H1603       H  0.94169854  0.30598163  0.90870784     0.15000
N1604       N  0.92514306  0.33518496  0.84278754     0.74100
O1605       O  0.08397254  0.34506909  0.85297999    -0.39300
O1606       O  0.58706462  0.38265331  0.90384092    -0.39300
O1607       O  0.90608525  0.30955381  0.81862109    -0.40000
O1608       O  0.40979036  0.34980791  0.86586326    -0.40000
C1609       C  0.99023485  0.16210293  0.88686867    -0.12300
C1610       C  0.00843633  0.19930173  0.88114190     0.04700
C1611       C  0.52519724  0.21380540  0.83926862    -0.07600
C1612       C  0.52269467  0.19108964  0.80412791    -0.08300
C1613       C  0.00308959  0.15326037  0.80872547    -0.02900
C1614       C  0.98796713  0.13906963  0.85207592     0.03900
N1615       N  0.97030939  0.10174186  0.86283120     0.66400
H1616       H  0.97796151  0.15062523  0.91927234     0.15300
H1617       H  0.53621586  0.20363549  0.77265787     0.15000
N1618       N  0.54290072  0.25157265  0.83100507     0.74100
O1619       O  0.99033135  0.08758103  0.87132786    -0.39300
O1620       O  0.93795891  0.08788266  0.88039568    -0.39300
O1621       O  0.57751549  0.26850236  0.82545024    -0.40000
O1622       O  0.52393827  0.26648160  0.82076170    -0.40000
C1623       C  0.98814453  0.15683942  0.57193779    -0.12300
C1624       C  0.01452972  0.19284610  0.57208127     0.04700
C1625       C  0.03965145  0.20461091  0.60555729    -0.07600
C1626       C  0.03583509  0.18100896  0.64005268    -0.08300
C1627       C  0.00731672  0.14534807  0.64237436    -0.02900
C1628       C  0.98495785  0.13278250  0.60553054     0.03900
N1629       N  0.96071961  0.09586554  0.59921566     0.66400
H1630       H  0.96993126  0.14708235  0.54498201     0.15300
H1631       H  0.05447428  0.19119175  0.66653695     0.15000
N1632       N  0.06761611  0.24095422  0.60677800     0.74100
O1633       O  0.42661917  0.08546677  0.59779439    -0.39300
O1634       O  0.97390029  0.07631745  0.58371446    -0.39300
O1635       O  0.56220315  0.26252763  0.63094485    -0.40000
O1636       O  0.09987538  0.24925292  0.59182762    -0.40000
C1637       C  0.83176109  0.33899328  0.59287351    -0.12300
C1638       C  0.79589904  0.31180175  0.60106353     0.04700
C1639       C  0.77718849  0.30993243  0.64189629    -0.07600
C1640       C  0.79502427  0.33430277  0.67456779    -0.08300
C1641       C  0.83237998  0.36009723  0.66851677    -0.02900
C1642       C  0.85013749  0.36337896  0.62550400     0.03900
N1643       N  0.88733726  0.38985707  0.61430229     0.66400
H1644       H  0.84566779  0.34148142  0.56067534     0.15300
H1645       H  0.77903169  0.33189148  0.70484873     0.15000
N1646       N  0.74055300  0.28202073  0.65165579     0.74100
O1647       O  0.91228839  0.38063942  0.61517072    -0.39300
O1648       O  0.89256563  0.41471970  0.58751726    -0.39300
O1649       O  0.73586298  0.25334989  0.66998746    -0.40000
O1650       O  0.71385874  0.28884830  0.65107756    -0.40000
C1651       C  0.81687920  0.35352357  0.90758754    -0.12300
C1652       C  0.80353923  0.31660485  0.90567434     0.04700
C1653       C  0.81341697  0.30261920  0.86796160    -0.07600
C1654       C  0.83402143  0.32535033  0.83217568    -0.08300
C1655       C  0.84614732  0.36244776  0.83289050    -0.02900
C1656       C  0.83870080  0.37641214  0.87225209     0.03900
N1657       N  0.85422582  0.41373223  0.87818091     0.66400
H1658       H  0.81109498  0.36481395  0.93722724     0.15300
H1659       H  0.83928056  0.31363768  0.80259289     0.15000
N1660       N  0.80062352  0.26505948  0.86406697     0.74100
O1661       O  0.83313362  0.42677300  0.88947459    -0.39300
O1662       O  0.88783661  0.43052368  0.88600608    -0.39300
O1663       O  0.77261209  0.24689651  0.84264343    -0.40000
O1664       O  0.82168909  0.25210276  0.87268784    -0.40000
C1665       C  0.69321664  0.17015831  0.88215077    -0.12300
C1666       C  0.67825148  0.18667324  0.91019462     0.05600
C1667       C  0.64331534  0.18354421  0.90230236    -0.07600
C1668       C  0.62492857  0.16534674  0.86555005    -0.08300
C1669       C  0.64015405  0.14911541  0.83671702    -0.02900
C1670       C  0.67462947  0.15115088  0.84624752     0.03900
N1671       N  0.69143492  0.13389861  0.82015732     0.66400
H1672       H  0.71984185  0.17206789  0.88785950     0.15300
H1673       H  0.59816614  0.16320499  0.86110590     0.15000
N1674       N  0.62523936  0.19722475  0.93228968     0.74100
O1675       O  0.72199448  0.15309204  0.79966816    -0.39300
O1676       O  0.68307080  0.10189839  0.82961194    -0.39300
O1677       O  0.62304185  0.22491966  0.92164270    -0.40000
O1678       O  0.60543078  0.17794043  0.96471167    -0.40000
C1679       C  0.70095141  0.17277779  0.63167704    -0.12300
C1680       C  0.67928370  0.17607301  0.59994286     0.04700
C1681       C  0.64105320  0.15303314  0.60293585    -0.07600
C1682       C  0.62508856  0.12941797  0.63968941    -0.08300
C1683       C  0.64643726  0.12995134  0.67460930    -0.02900
C1684       C  0.68521677  0.14988641  0.66837318     0.03900
N1685       N  0.70921584  0.14755314  0.69911636     0.66400
H1686       H  0.73066883  0.18871570  0.62834065     0.15300
H1687       H  0.59584606  0.11170895  0.64158731     0.15000
N1688       N  0.61833970  0.15275196  0.56884060     0.74100
O1689       O  0.73545005  0.17588934  0.71218600    -0.39300
O1690       O  0.70960642  0.11821344  0.70464245    -0.39300
O1691       O  0.60961764  0.12922994  0.53981272    -0.40000
O1692       O  0.60087158  0.17046334  0.57321245    -0.40000
O1693       O  0.69272083  0.73203956  0.46213016    -0.74500
O1694       O  0.74846062  0.79085073  0.05223330    -0.74500
O1695       O  0.75350925  0.79625445  0.46190639    -0.74600
O1696       O  0.68948327  0.72515129  0.05073143    -0.74600
O1697       O  0.72818693  0.70186135  0.04642738    -0.74500
O1698       O  0.78859324  0.76904557  0.45681332    -0.74500
O1699       O  0.78712113  0.76748348  0.04690080    -0.74500
O1700       O  0.72808020  0.70514937  0.45796821    -0.74600
Ni1701     Ni  0.71984018  0.76213468  0.50691687     1.25400
Ni1702     Ni  0.75936269  0.73503446  0.00193089     1.25400
C1703       C  0.70056887  0.70868604  0.44549326     0.87700
C1704       C  0.77641407  0.78880384  0.06494139     0.87600
C1705       C  0.78079124  0.79307965  0.44351132     0.87700
C1706       C  0.69909248  0.70185722  0.06317622     0.87800
O1707       O  0.97820591  0.71610214  0.43916868    -0.74500
O1708       O  0.97749451  0.77402958  0.03694366    -0.74500
O1709       O  0.97424625  0.77805673  0.44803552    -0.74600
O1710       O  0.98143364  0.71243452  0.02794021    -0.74600
O1711       O  0.54269991  0.74368961  0.02216319    -0.74500
O1712       O  0.53536812  0.80851518  0.44047795    -0.74500
O1713       O  0.53864176  0.80579310  0.02919061    -0.74500
O1714       O  0.53943701  0.74682662  0.43186168    -0.74600
Ni1715     Ni  0.97571198  0.74409356  0.98825278     1.25400
Ni1716     Ni  0.54124558  0.77723855  0.98067766     1.25400
C1717       C  0.00884058  0.72202554  0.41909486     0.87700
C1718       C  0.00784939  0.79940204  0.04921327     0.87600
C1719       C  0.00367081  0.80396251  0.43057476     0.87700
C1720       C  0.01308039  0.71756258  0.03895095     0.87800
O1721       O  0.78437915  0.54250149  0.05358625    -0.74500
O1722       O  0.71224573  0.52307647  0.46629087    -0.74500
O1723       O  0.71259256  0.52776259  0.05511981    -0.74600
O1724       O  0.78439075  0.53937107  0.46345998    -0.74600
O1725       O  0.76879480  0.98138885  0.46873353    -0.74500
O1726       O  0.69538358  0.96954639  0.05969518    -0.74500
O1727       O  0.69694475  0.96516506  0.47034019    -0.74500
O1728       O  0.76722346  0.98421078  0.05769051    -0.74600
Ni1729     Ni  0.74907687  0.53528268  0.50941414     1.25400
Ni1730     Ni  0.73147228  0.97302760  0.51439179     1.25400
C1731       C  0.78753576  0.01613071  0.06998157     0.87700
C1732       C  0.69286356  0.99079638  0.45395104     0.87600
C1733       C  0.69191319  0.99682887  0.07243649     0.87700
C1734       C  0.78817333  0.01245632  0.45064294     0.87800
C1735       C  0.99749766  0.88251283  0.20029831     0.86400
C1736       C  0.96003093  0.88058849  0.20105735    -0.53800
C1737       C  0.94933143  0.89302970  0.23797403     0.09400
C1738       C  0.97948390  0.90726488  0.27211488     0.20300
C1739       C  0.52357518  0.92223719  0.20810725    -0.54500
C1740       C  0.51531796  0.93517968  0.24664219     0.09500
C1741       C  0.99777044  0.86392127  0.24345280    -0.54000
C1742       C  0.98781629  0.87603158  0.28055877     0.10000
H1743       H  0.94413199  0.87021589  0.17265989     0.14600
H1744       H  0.97201794  0.91756143  0.30259964     0.00300
H1745       H  0.54896028  0.93718467  0.18848530     0.14900
H1746       H  0.00671289  0.84354115  0.24491079     0.14700
C1747       C  0.00208828  0.62430153  0.18584866     0.86400
C1748       C  0.53558100  0.61882851  0.19405466    -0.53800
C1749       C  0.53394254  0.60298680  0.23376483     0.09400
C1750       C  0.99870065  0.59466047  0.26272254     0.20300
C1751       C  0.96873354  0.58720125  0.19320233    -0.54500
C1752       C  0.96676242  0.57148560  0.23285776     0.09500
C1753       C  0.99874969  0.64529159  0.22617409    -0.54000
C1754       C  0.99849471  0.63125191  0.26706288     0.10000
H1755       H  0.56009675  0.63041157  0.17222885     0.14600
H1756       H  0.99757095  0.58118773  0.29421537     0.00300
H1757       H  0.94577028  0.57535487  0.17248517     0.14900
H1758       H  0.99786013  0.67031646  0.22198570     0.14700
C1759       C  0.61940967  0.62725218  0.29815327     0.86400
C1760       C  0.58289823  0.62552523  0.28635299    -0.53800
C1761       C  0.56719045  0.60389506  0.25182106     0.09400
C1762       C  0.59000077  0.58572491  0.23180797     0.20300
C1763       C  0.60928178  0.58863249  0.30649006    -0.54500
C1764       C  0.59607613  0.56636761  0.27189574     0.09500
C1765       C  0.64317430  0.63892657  0.25498056    -0.54000
C1766       C  0.62857394  0.61762580  0.21993164     0.10000
H1767       H  0.57080074  0.64092146  0.30187893     0.14600
H1768       H  0.57747803  0.56826348  0.20363824     0.00300
H1769       H  0.61193995  0.58033131  0.33918135     0.14900
H1770       H  0.66851643  0.66402002  0.25204458     0.14700
C1771       C  0.59984712  0.48166044  0.31228375     0.86400
C1772       C  0.60587698  0.51971591  0.31039790    -0.53800
C1773       C  0.59203612  0.52907021  0.27546384     0.09400
C1774       C  0.57549242  0.49834588  0.24221677     0.20300
C1775       C  0.55833595  0.95846175  0.30695181    -0.54500
C1776       C  0.54570782  0.96545236  0.26888930     0.09500
C1777       C  0.61874315  0.47941142  0.26819957    -0.54000
C1778       C  0.60600113  0.48756709  0.23174879     0.10000
H1779       H  0.62284797  0.53815342  0.33417423     0.14600
H1780       H  0.56519590  0.50531834  0.21261268     0.00300
H1781       H  0.54165579  0.93589797  0.32884225     0.14900
H1782       H  0.64240353  0.47470779  0.26535277     0.14700
C1783       C  0.87635800  0.51208831  0.29613655     0.86400
C1784       C  0.87929004  0.97749897  0.29222347    -0.53800
C1785       C  0.89529579  0.97397058  0.25333432     0.09400
C1786       C  0.90764260  0.50706164  0.22098703     0.20300
C1787       C  0.91494657  0.54224433  0.28672103    -0.54500
C1788       C  0.93212915  0.53991360  0.24869906     0.09500
C1789       C  0.85556784  0.51160339  0.25505453    -0.54000
C1790       C  0.87232591  0.51117074  0.21505539     0.10000
H1791       H  0.86621774  0.95589488  0.31636466     0.14600
H1792       H  0.92211000  0.50545168  0.19008901     0.00300
H1793       H  0.92653653  0.56586454  0.30667424     0.14900
H1794       H  0.82906657  0.01131603  0.25731558     0.14700
C1795       C  0.85425381  0.87967614  0.20846701     0.86400
C1796       C  0.86887014  0.92021430  0.20765343    -0.53800
C1797       C  0.89063852  0.93769850  0.24129515     0.09400
C1798       C  0.89735080  0.91211596  0.27269886     0.20300
C1799       C  0.88740267  0.87341806  0.21055293    -0.54500
C1800       C  0.91207457  0.89202284  0.24104155     0.09500
C1801       C  0.83561598  0.86747795  0.25503162    -0.54000
C1802       C  0.85787141  0.88273894  0.28916813     0.10000
H1803       H  0.85788819  0.93300069  0.18671981     0.14600
H1804       H  0.91564148  0.92600211  0.29964559     0.00300
H1805       H  0.88934212  0.85338679  0.19009675     0.14900
H1806       H  0.80846903  0.84519948  0.26168320     0.14700
C1807       C  0.83573493  0.00320514  0.09841758    -0.12300
C1808       C  0.81491079  0.02145512  0.10329170     0.04700
C1809       C  0.81815535  0.54101928  0.14175555    -0.07600
C1810       C  0.83953815  0.53954215  0.17561826    -0.08300
C1811       C  0.85773038  0.51816171  0.17297176    -0.02900
C1812       C  0.85749822  0.00192025  0.13199500     0.03900
N1813       N  0.87710503  0.98219133  0.12371218     0.66400
H1814       H  0.83443905  0.98894433  0.06827939     0.15300
H1815       H  0.84057667  0.55433710  0.20513395     0.15000
N1816       N  0.79748866  0.56004442  0.14870949     0.74100
O1817       O  0.85910151  0.95069198  0.11072077    -0.39300
O1818       O  0.91108703  0.49914653  0.11283953    -0.39300
O1819       O  0.76711809  0.04545470  0.17108430    -0.40000
O1820       O  0.81269278  0.59320730  0.14024697    -0.40000
C1821       C  0.83797909  0.53558195  0.33842255    -0.12300
C1822       C  0.85907146  0.51728071  0.33970016     0.04700
C1823       C  0.86437731  0.00641450  0.38211317    -0.07600
C1824       C  0.83948677  0.00355610  0.41755945    -0.08300
C1825       C  0.81466902  0.01715111  0.41372415    -0.02900
C1826       C  0.81612651  0.53580762  0.37488663     0.03900
N1827       N  0.79499996  0.55445679  0.37149197     0.66400
H1828       H  0.83818282  0.54999460  0.30891735     0.15300
H1829       H  0.84051101  0.99224481  0.44914647     0.15000
N1830       N  0.89552146  0.00087136  0.39121195     0.74100
O1831       O  0.76481775  0.53986160  0.35313526    -0.39300
O1832       O  0.81019015  0.08769045  0.37743834    -0.39300
O1833       O  0.92323371  0.51155512  0.36432458    -0.40000
O1834       O  0.89849751  0.99154261  0.42970827    -0.40000
C1835       C  0.63924385  0.95839104  0.35046614    -0.12300
C1836       C  0.61566984  0.47417055  0.35396280     0.04700
C1837       C  0.61283632  0.48879486  0.39534309    -0.07600
C1838       C  0.63851876  0.49445725  0.42713939    -0.08300
C1839       C  0.66513756  0.98285644  0.42060594    -0.02900
C1840       C  0.66386383  0.96272155  0.38304345     0.03900
N1841       N  0.68882777  0.94822903  0.37607937     0.66400
H1842       H  0.63956304  0.94322203  0.32192122     0.15300
H1843       H  0.63733422  0.50759552  0.45744049     0.15000
N1844       N  0.58427572  0.49834063  0.40545816     0.74100
O1845       O  0.71840106  0.96573201  0.35289823    -0.39300
O1846       O  0.67754278  0.91535837  0.38369553    -0.39300
O1847       O  0.55247928  0.47404174  0.41733461    -0.40000
O1848       O  0.59258877  0.53043882  0.41327471    -0.40000
C1849       C  0.65003413  0.96160697  0.13559478    -0.12300
C1850       C  0.66488162  0.99281249  0.10905441     0.04700
C1851       C  0.65548000  0.52020761  0.12017345    -0.07600
C1852       C  0.63408318  0.51695983  0.15903934    -0.08300
C1853       C  0.62195871  0.48697588  0.18716928    -0.02900
C1854       C  0.62879418  0.95840640  0.17430582     0.03900
N1855       N  0.61459927  0.92595432  0.20019083     0.66400
H1856       H  0.65598898  0.93987664  0.12728339     0.15300
H1857       H  0.62860768  0.53882670  0.16837517     0.15000
N1858       N  0.66790869  0.55178170  0.09307760     0.74100
O1859       O  0.58516587  0.89954691  0.18979076    -0.39300
O1860       O  0.63607037  0.42048541  0.22344280    -0.39300
O1861       O  0.64668737  0.05364369  0.06588647    -0.40000
O1862       O  0.69572973  0.58001789  0.10329411    -0.40000
C1863       C  0.52475215  0.85874294  0.08383793    -0.12300
C1864       C  0.00704966  0.82119177  0.08738032     0.04700
C1865       C  0.98669048  0.80461136  0.12684532    -0.07600
C1866       C  0.98432297  0.82527220  0.16155716    -0.08300
C1867       C  0.00305238  0.86307466  0.15954398    -0.02900
C1868       C  0.52207753  0.87972616  0.11880269     0.03900
N1869       N  0.53513828  0.91698607  0.11020560     0.66400
H1870       H  0.53907870  0.87179784  0.05283722     0.15300
H1871       H  0.96725673  0.81115050  0.19066974     0.15000
N1872       N  0.96922642  0.76662531  0.13300972     0.74100
O1873       O  0.56906319  0.93697895  0.10154402    -0.39300
O1874       O  0.51250314  0.92770387  0.10023172    -0.39300
O1875       O  0.98606229  0.75247629  0.15166513    -0.40000
O1876       O  0.93490645  0.74876988  0.12986215    -0.40000
C1877       C  0.02682317  0.86843187  0.33351816    -0.12300
C1878       C  0.99183583  0.86331735  0.32397776     0.04700
C1879       C  0.96127061  0.84163011  0.35223603    -0.07600
C1880       C  0.96586705  0.82394841  0.38844080    -0.08300
C1881       C  0.00080601  0.82776312  0.39700470    -0.02900
C1882       C  0.03176490  0.85173758  0.37010561     0.03900
N1883       N  0.06827332  0.85830741  0.37799079     0.66400
H1884       H  0.05050395  0.88478928  0.31146732     0.15300
H1885       H  0.94169839  0.80598139  0.40870761     0.15000
N1886       N  0.92514289  0.83518463  0.34278725     0.74100
O1887       O  0.08397245  0.84506915  0.35297985    -0.39300
O1888       O  0.58706439  0.88265331  0.40384119    -0.39300
O1889       O  0.90608533  0.80955360  0.31862049    -0.40000
O1890       O  0.40978992  0.84980736  0.36586331    -0.40000
C1891       C  0.99023490  0.66210288  0.38686867    -0.12300
C1892       C  0.00843624  0.69930167  0.38114184     0.04700
C1893       C  0.52519703  0.71380533  0.33926867    -0.07600
C1894       C  0.52269450  0.69108957  0.30412797    -0.08300
C1895       C  0.00308948  0.65326030  0.30872544    -0.02900
C1896       C  0.98796716  0.63906957  0.35207593     0.03900
N1897       N  0.97030955  0.60174181  0.36283124     0.66400
H1898       H  0.97796165  0.65062519  0.41927238     0.15300
H1899       H  0.53621558  0.70363542  0.27265791     0.15000
N1900       N  0.54290029  0.75157257  0.33100504     0.74100
O1901       O  0.99033161  0.58758110  0.37132791    -0.39300
O1902       O  0.93795907  0.58788252  0.38039575    -0.39300
O1903       O  0.57751504  0.76850246  0.32545019    -0.40000
O1904       O  0.52393766  0.76648132  0.32076165    -0.40000
C1905       C  0.98814437  0.65683944  0.07193783    -0.12300
C1906       C  0.01452966  0.69284608  0.07208127     0.04700
C1907       C  0.03965138  0.70461084  0.10555729    -0.07600
C1908       C  0.03583495  0.68100888  0.14005269    -0.08300
C1909       C  0.00731653  0.64534801  0.14237438    -0.02900
C1910       C  0.98495758  0.63278250  0.10553061     0.03900
N1911       N  0.96071900  0.59586561  0.09921589     0.66400
H1912       H  0.96993104  0.64708241  0.04498210     0.15300
H1913       H  0.05447416  0.69119163  0.16653695     0.15000
N1914       N  0.06761611  0.74095412  0.10677801     0.74100
O1915       O  0.42661892  0.58546680  0.09779489    -0.39300
O1916       O  0.97389926  0.57631732  0.08371424    -0.39300
O1917       O  0.56220282  0.76252751  0.13094516    -0.40000
O1918       O  0.09987536  0.74925276  0.09182762    -0.40000
C1919       C  0.83176095  0.83899302  0.09287341    -0.12300
C1920       C  0.79589887  0.81180155  0.10106339     0.04700
C1921       C  0.77718829  0.80993227  0.14189611    -0.07600
C1922       C  0.79502410  0.83430259  0.17456764    -0.08300
C1923       C  0.83237981  0.86009702  0.16851665    -0.02900
C1924       C  0.85013734  0.86337870  0.12550390     0.03900
N1925       N  0.88733713  0.88985679  0.11430223     0.66400
H1926       H  0.84566768  0.84148114  0.06067526     0.15300
H1927       H  0.77903150  0.83189134  0.20484857     0.15000
N1928       N  0.74055273  0.78202068  0.15165553     0.74100
O1929       O  0.91228818  0.88063901  0.11517029    -0.39300
O1930       O  0.89256553  0.91471963  0.08751756    -0.39300
O1931       O  0.73586253  0.75334981  0.16998728    -0.40000
O1932       O  0.71385856  0.78884839  0.15107710    -0.40000
C1933       C  0.81687918  0.85352355  0.40758744    -0.12300
C1934       C  0.80353917  0.81660483  0.40567428     0.04700
C1935       C  0.81341681  0.80261912  0.36796152    -0.07600
C1936       C  0.83402124  0.82535021  0.33217557    -0.08300
C1937       C  0.84614717  0.86244764  0.33289035    -0.02900
C1938       C  0.83870073  0.87641208  0.37225195     0.03900
N1939       N  0.85422579  0.91373218  0.37818070     0.66400
H1940       H  0.81109503  0.86481396  0.43722716     0.15300
H1941       H  0.83928032  0.81363752  0.30259278     0.15000
N1942       N  0.80062326  0.76505938  0.36406691     0.74100
O1943       O  0.83313362  0.92677297  0.38947448    -0.39300
O1944       O  0.88783661  0.93052364  0.38600573    -0.39300
O1945       O  0.77261162  0.74689641  0.34264371    -0.40000
O1946       O  0.82168888  0.75210263  0.37268740    -0.40000
C1947       C  0.69321694  0.67015852  0.38215063    -0.12300
C1948       C  0.67825165  0.68667321  0.41019470     0.05600
C1949       C  0.64331541  0.68354398  0.40230258    -0.07600
C1950       C  0.62492869  0.66534660  0.36555020    -0.08300
C1951       C  0.64015430  0.64911552  0.33671695    -0.02900
C1952       C  0.67462981  0.65115115  0.34624732     0.03900
N1953       N  0.69143539  0.63389909  0.32015692     0.66400
H1954       H  0.71984224  0.67206824  0.38785926     0.15300
H1955       H  0.59816615  0.66320467  0.36110620     0.15000
N1956       N  0.62523927  0.69722419  0.43229016     0.74100
O1957       O  0.72199505  0.65309266  0.29966805    -0.39300
O1958       O  0.68307116  0.60189876  0.32961105    -0.39300
O1959       O  0.62304141  0.72491896  0.42164345    -0.40000
O1960       O  0.60543087  0.67793965  0.46471211    -0.40000
C1961       C  0.70095131  0.67277789  0.13167677    -0.12300
C1962       C  0.67928355  0.67607301  0.09994260     0.04700
C1963       C  0.64105304  0.65303306  0.10293566    -0.07600
C1964       C  0.62508853  0.62941799  0.13968931    -0.08300
C1965       C  0.64643726  0.62995143  0.17460916    -0.02900
C1966       C  0.68521678  0.64988655  0.16837295     0.03900
N1967       N  0.70921593  0.64755332  0.19911604     0.66400
H1968       H  0.73066876  0.68871587  0.12834032     0.15300
H1969       H  0.59584586  0.61170883  0.14158730     0.15000
N1970       N  0.61833951  0.65275171  0.06884038     0.74100
O1971       O  0.73545010  0.67588955  0.21218568    -0.39300
O1972       O  0.70960667  0.61821368  0.20464196    -0.39300
O1973       O  0.60961762  0.62922971  0.03981249    -0.40000
O1974       O  0.60087118  0.67046290  0.07321219    -0.40000
O1975       O  0.69272094  0.73203962  0.96212994    -0.74500
O1976       O  0.74846061  0.79085077  0.55223344    -0.74500
O1977       O  0.75350941  0.79625446  0.96190624    -0.74600
O1978       O  0.68948328  0.72515128  0.55073165    -0.74600
O1979       O  0.72818699  0.70186140  0.54642755    -0.74500
O1980       O  0.78859335  0.76904553  0.95681326    -0.74500
O1981       O  0.78712118  0.76748357  0.54690083    -0.74500
O1982       O  0.72808024  0.70514936  0.95796806    -0.74600
Ni1983     Ni  0.71984025  0.76213470  0.00691668     1.25400
Ni1984     Ni  0.75936267  0.73503451  0.50193099     1.25400
C1985       C  0.70056893  0.70868606  0.94549309     0.87700
C1986       C  0.77641412  0.78880394  0.56494143     0.87600
C1987       C  0.78079142  0.79307964  0.94351123     0.87700
C1988       C  0.69909253  0.70185724  0.56317642     0.87800
O1989       O  0.97820588  0.71610219  0.93916876    -0.74500
O1990       O  0.97749459  0.77402955  0.53694359    -0.74500
O1991       O  0.97424626  0.77805680  0.94803559    -0.74600
O1992       O  0.98143373  0.71243451  0.52794012    -0.74600
O1993       O  0.54270008  0.74368970  0.52216313    -0.74500
O1994       O  0.53536809  0.80851521  0.94047806    -0.74500
O1995       O  0.53864192  0.80579318  0.52919047    -0.74500
O1996       O  0.53943693  0.74682663  0.93186172    -0.74600
Ni1997     Ni  0.97571202  0.74409351  0.48825270     1.25400
Ni1998     Ni  0.54124569  0.77723859  0.48067757     1.25400
C1999       C  0.00884055  0.72202558  0.91909496     0.87700
C2000       C  0.00784948  0.79940201  0.54921316     0.87600
C2001       C  0.00367085  0.80396258  0.93057487     0.87700
C2002       C  0.01308050  0.71756259  0.53895083     0.87800
O2003       O  0.78437922  0.54250147  0.55358614    -0.74500
O2004       O  0.71224564  0.52307645  0.96629099    -0.74500
O2005       O  0.71259269  0.52776264  0.55511969    -0.74600
O2006       O  0.78439067  0.53937109  0.96346013    -0.74600
O2007       O  0.76879475  0.98138887  0.96873372    -0.74500
O2008       O  0.69538359  0.96954625  0.55969501    -0.74500
O2009       O  0.69694472  0.96516514  0.97034038    -0.74500
O2010       O  0.76722346  0.98421065  0.55769034    -0.74600
Ni2011     Ni  0.74907677  0.53528267  0.00941427     1.25400
Ni2012     Ni  0.73147225  0.97302769  0.01439198     1.25400
C2013       C  0.78753573  0.01613057  0.56998146     0.87700
C2014       C  0.69286355  0.99079647  0.95395120     0.87600
C2015       C  0.69191319  0.99682872  0.57243634     0.87700
C2016       C  0.78817328  0.01245632  0.95064305     0.87800
C2017       C  0.99749789  0.88251281  0.70029824     0.86400
C2018       C  0.96003117  0.88058849  0.70105725    -0.53800
C2019       C  0.94933169  0.89302974  0.73797394     0.09400
C2020       C  0.97948416  0.90726488  0.77211479     0.20300
C2021       C  0.52357545  0.92223730  0.70810715    -0.54500
C2022       C  0.51531822  0.93517977  0.74664209     0.09500
C2023       C  0.99777065  0.86392124  0.74345274    -0.54000
C2024       C  0.98781652  0.87603158  0.78055870     0.10000
H2025       H  0.94413228  0.87021597  0.67265982     0.14600
H2026       H  0.97201821  0.91756145  0.80259955     0.00300
H2027       H  0.54896056  0.93718477  0.68848521     0.14900
H2028       H  0.00671309  0.84354111  0.74491076     0.14700
C2029       C  0.00208838  0.62430165  0.68584865     0.86400
C2030       C  0.53558105  0.61882846  0.69405464    -0.53800
C2031       C  0.53394248  0.60298672  0.73376485     0.09400
C2032       C  0.99870064  0.59466055  0.76272253     0.20300
C2033       C  0.96873353  0.58720145  0.69320235    -0.54500
C2034       C  0.96676237  0.57148578  0.73285777     0.09500
C2035       C  0.99874989  0.64529177  0.72617408    -0.54000
C2036       C  0.99849486  0.63125206  0.76706288     0.10000
H2037       H  0.56009668  0.63041143  0.67222896     0.14600
H2038       H  0.99757089  0.58118777  0.79421533     0.00300
H2039       H  0.94577023  0.57535518  0.67248518     0.14900
H2040       H  0.99786039  0.67031667  0.72198569     0.14700
C2041       C  0.61940953  0.62725198  0.79815337     0.86400
C2042       C  0.58289810  0.62552504  0.78635308    -0.53800
C2043       C  0.56719036  0.60389491  0.75182111     0.09400
C2044       C  0.59000071  0.58572478  0.73180801     0.20300
C2045       C  0.60928165  0.58863229  0.80649013    -0.54500
C2046       C  0.59607605  0.56636745  0.77189576     0.09500
C2047       C  0.64317419  0.63892642  0.75498069    -0.54000
C2048       C  0.62857387  0.61762568  0.71993174     0.10000
H2049       H  0.57080059  0.64092123  0.80187904     0.14600
H2050       H  0.57747799  0.56826337  0.70363824     0.00300
H2051       H  0.61193979  0.58033108  0.83918140     0.14900
H2052       H  0.66851632  0.66401987  0.75204476     0.14700
C2053       C  0.59984721  0.48166032  0.81228364     0.86400
C2054       C  0.60587705  0.51971579  0.81039783    -0.53800
C2055       C  0.59203615  0.52907009  0.77546381     0.09400
C2056       C  0.57549242  0.49834577  0.74221675     0.20300
C2057       C  0.55833619  0.95846187  0.80695172    -0.54500
C2058       C  0.54570806  0.96545243  0.76888918     0.09500
C2059       C  0.61874318  0.47941130  0.76819942    -0.54000
C2060       C  0.60600113  0.48756698  0.73174869     0.10000
H2061       H  0.62284799  0.53815328  0.83417420     0.14600
H2062       H  0.56519588  0.50531823  0.71261268     0.00300
H2063       H  0.54165604  0.93589810  0.82884218     0.14900
H2064       H  0.64240357  0.47470768  0.76535254     0.14700
C2065       C  0.87635807  0.51208843  0.79613681     0.86400
C2066       C  0.87929016  0.97749898  0.79222348    -0.53800
C2067       C  0.89529594  0.97397061  0.75333437     0.09400
C2068       C  0.90764255  0.50706180  0.72098718     0.20300
C2069       C  0.91494653  0.54224449  0.78672109    -0.54500
C2070       C  0.93212908  0.53991383  0.74869913     0.09500
C2071       C  0.85556773  0.51160335  0.75505488    -0.54000
C2072       C  0.87232574  0.51117075  0.71505568     0.10000
H2073       H  0.86621783  0.95589474  0.81636483     0.14600
H2074       H  0.92210992  0.50545186  0.69008914     0.00300
H2075       H  0.92653663  0.56586500  0.80667450     0.14900
H2076       H  0.82906633  0.01131562  0.75731555     0.14700
C2077       C  0.85425408  0.87967622  0.70846697     0.86400
C2078       C  0.86887037  0.92021437  0.70765344    -0.53800
C2079       C  0.89063875  0.93769857  0.74129516     0.09400
C2080       C  0.89735109  0.91211603  0.77269882     0.20300
C2081       C  0.88740296  0.87341818  0.71055281    -0.54500
C2082       C  0.91207486  0.89202294  0.74104144     0.09500
C2083       C  0.83561628  0.86747799  0.75503159    -0.54000
C2084       C  0.85787172  0.88273896  0.78916810     0.10000
H2085       H  0.85788837  0.93300076  0.68671986     0.14600
H2086       H  0.91564178  0.92600216  0.79964553     0.00300
H2087       H  0.88934239  0.85338693  0.69009663     0.14900
H2088       H  0.80846935  0.84519950  0.76168319     0.14700
C2089       C  0.83573491  0.00320501  0.59841751    -0.12300
C2090       C  0.81491072  0.02145494  0.60329164     0.04700
C2091       C  0.81815471  0.54101883  0.64175593    -0.07600
C2092       C  0.83953744  0.53954171  0.67561873    -0.08300
C2093       C  0.85773008  0.51816164  0.67297210    -0.02900
C2094       C  0.85749816  0.00192009  0.63199496     0.03900
N2095       N  0.87710495  0.98219116  0.62371217     0.66400
H2096       H  0.83443907  0.98894425  0.56827929     0.15300
H2097       H  0.84057563  0.55433641  0.70513454     0.15000
N2098       N  0.79748754  0.56004348  0.64871002     0.74100
O2099       O  0.85910142  0.95069179  0.61072079    -0.39300
O2100       O  0.91108740  0.49914736  0.61283954    -0.39300
O2101       O  0.76711755  0.04545404  0.67108372    -0.40000
O2102       O  0.81269131  0.59320642  0.64024797    -0.40000
C2103       C  0.83797925  0.53558213  0.83842282    -0.12300
C2104       C  0.85907155  0.51728083  0.83970043     0.04700
C2105       C  0.86437720  0.00641444  0.88211319    -0.07600
C2106       C  0.83948672  0.00355610  0.91755951    -0.08300
C2107       C  0.81466890  0.01715103  0.91372420    -0.02900
C2108       C  0.81612663  0.53580779  0.87488688     0.03900
N2109       N  0.79500012  0.55445699  0.87149222     0.66400
H2110       H  0.83818301  0.54999480  0.80891762     0.15300
H2111       H  0.84051106  0.99224493  0.94914657     0.15000
N2112       N  0.89552140  0.00087137  0.89121194     0.74100
O2113       O  0.76481816  0.53986202  0.85313497    -0.39300
O2114       O  0.81018966  0.08769008  0.87743814    -0.39300
O2115       O  0.92323376  0.51155522  0.86432483    -0.40000
O2116       O  0.89849739  0.99154245  0.92970819    -0.40000
C2117       C  0.63924398  0.95839119  0.85046621    -0.12300
C2118       C  0.61566997  0.47417046  0.85396266     0.04700
C2119       C  0.61283618  0.48879452  0.89534303    -0.07600
C2120       C  0.63851856  0.49445696  0.92713943    -0.08300
C2121       C  0.66513760  0.98285655  0.92060606    -0.02900
C2122       C  0.66386384  0.96272159  0.88304362     0.03900
N2123       N  0.68882758  0.94822882  0.87607976     0.66400
H2124       H  0.63956315  0.94322216  0.82192130     0.15300
H2125       H  0.63733383  0.50759507  0.95744059     0.15000
N2126       N  0.58427535  0.49833998  0.90545807     0.74100
O2127       O  0.71840097  0.96573161  0.85289871    -0.39300
O2128       O  0.67754234  0.91535812  0.88369603    -0.39300
O2129       O  0.55247908  0.47404093  0.91733484    -0.40000
O2130       O  0.59258811  0.53043815  0.91327434    -0.40000
C2131       C  0.65003434  0.96160694  0.63559482    -0.12300
C2132       C  0.66488168  0.99281237  0.60905429     0.04700
C2133       C  0.65548046  0.52020787  0.62017370    -0.07600
C2134       C  0.63408352  0.51695999  0.65903950    -0.08300
C2135       C  0.62195873  0.48697585  0.68716918    -0.02900
C2136       C  0.62879448  0.95840646  0.67430592     0.03900
N2137       N  0.61459969  0.92595447  0.70019108     0.66400
H2138       H  0.65598925  0.93987663  0.62728352     0.15300
H2139       H  0.62860822  0.53882696  0.66837554     0.15000
N2140       N  0.66790970  0.55178228  0.59307831     0.74100
O2141       O  0.58516625  0.89954701  0.68979122    -0.39300
O2142       O  0.63606985  0.42048516  0.72344262    -0.39300
O2143       O  0.64668719  0.05364334  0.56588614    -0.40000
O2144       O  0.69573111  0.58001805  0.60329506    -0.40000
C2145       C  0.52475240  0.85874305  0.58383782    -0.12300
C2146       C  0.00704979  0.82119174  0.58738022     0.04700
C2147       C  0.98669068  0.80461134  0.62684525    -0.07600
C2148       C  0.98432321  0.82527218  0.66155711    -0.08300
C2149       C  0.00305260  0.86307463  0.65954391    -0.02900
C2150       C  0.52207783  0.87972629  0.61880258     0.03900
N2151       N  0.53513868  0.91698621  0.61020552     0.66400
H2152       H  0.53907897  0.87179794  0.55283710     0.15300
H2153       H  0.96725701  0.81115047  0.69066971     0.15000
N2154       N  0.96922666  0.76662528  0.63300968     0.74100
O2155       O  0.56906363  0.93697905  0.60154415    -0.39300
O2156       O  0.51250364  0.92770407  0.60023136    -0.39300
O2157       O  0.98606269  0.75247629  0.65166478    -0.40000
O2158       O  0.93490664  0.74876986  0.62986253    -0.40000
C2159       C  0.02682335  0.86843187  0.83351818    -0.12300
C2160       C  0.99183602  0.86331735  0.82397771     0.04700
C2161       C  0.96127078  0.84163018  0.85223597    -0.07600
C2162       C  0.96586716  0.82394848  0.88844079    -0.08300
C2163       C  0.00080610  0.82776320  0.89700479    -0.02900
C2164       C  0.03176504  0.85173767  0.87010576     0.03900
N2165       N  0.06827346  0.85830768  0.87799122     0.66400
H2166       H  0.05050416  0.88478927  0.81146737     0.15300
H2167       H  0.94169847  0.80598148  0.90870757     0.15000
N2168       N  0.92514310  0.83518481  0.84278720     0.74100
O2169       O  0.08397287  0.84506964  0.85298038    -0.39300
O2170       O  0.58706423  0.88265380  0.90384188    -0.39300
O2171       O  0.90608541  0.80955373  0.81862058    -0.40000
O2172       O  0.40979011  0.84980744  0.86586280    -0.40000
C2173       C  0.99023495  0.66210295  0.88686872    -0.12300
C2174       C  0.00843622  0.69930174  0.88114192     0.04700
C2175       C  0.52519697  0.71380541  0.83926863    -0.07600
C2176       C  0.52269448  0.69108966  0.80412793    -0.08300
C2177       C  0.00308957  0.65326042  0.80872547    -0.02900
C2178       C  0.98796726  0.63906966  0.85207596     0.03900
N2179       N  0.97030974  0.60174190  0.86283127     0.66400
H2180       H  0.97796173  0.65062523  0.91927243     0.15300
H2181       H  0.53621557  0.70363553  0.77265787     0.15000
N2182       N  0.54290020  0.75157265  0.83100501     0.74100
O2183       O  0.99033188  0.58758125  0.87132785    -0.39300
O2184       O  0.93795929  0.58788256  0.88039588    -0.39300
O2185       O  0.57751495  0.76850257  0.82545014    -0.40000
O2186       O  0.52393754  0.76648138  0.82076166    -0.40000
C2187       C  0.98814458  0.65683945  0.57193772    -0.12300
C2188       C  0.01452980  0.69284613  0.57208118     0.04700
C2189       C  0.03965148  0.70461094  0.60555724    -0.07600
C2190       C  0.03583507  0.68100901  0.64005267    -0.08300
C2191       C  0.00731668  0.64534812  0.64237436    -0.02900
C2192       C  0.98495782  0.63278255  0.60553053     0.03900
N2193       N  0.96071948  0.59586561  0.59921572     0.66400
H2194       H  0.96993131  0.64708239  0.54498193     0.15300
H2195       H  0.05447424  0.69119179  0.66653696     0.15000
N2196       N  0.06761615  0.74095424  0.60677796     0.74100
O2197       O  0.42661920  0.58546680  0.59779458    -0.39300
O2198       O  0.97390003  0.57631743  0.58371450    -0.39300
O2199       O  0.56220301  0.76252765  0.63094477    -0.40000
O2200       O  0.09987541  0.74925295  0.59182752    -0.40000
C2201       C  0.83176107  0.83899318  0.59287333    -0.12300
C2202       C  0.79589899  0.81180170  0.60106337     0.04700
C2203       C  0.77718850  0.80993237  0.64189617    -0.07600
C2204       C  0.79502435  0.83430269  0.67456767    -0.08300
C2205       C  0.83238005  0.86009712  0.66851662    -0.02900
C2206       C  0.85013753  0.86337883  0.62550383     0.03900
N2207       N  0.88733734  0.88985686  0.61430215     0.66400
H2208       H  0.84566775  0.84148131  0.56067514     0.15300
H2209       H  0.77903178  0.83189142  0.70484863     0.15000
N2210       N  0.74055302  0.78202068  0.65165572     0.74100
O2211       O  0.91228834  0.88063901  0.61517014    -0.39300
O2212       O  0.89256580  0.91471977  0.58751755    -0.39300
O2213       O  0.73586299  0.75335007  0.66998803    -0.40000
O2214       O  0.71385871  0.78884816  0.65107684    -0.40000
C2215       C  0.81687947  0.85352356  0.90758740    -0.12300
C2216       C  0.80353943  0.81660483  0.90567423     0.04700
C2217       C  0.81341709  0.80261912  0.86796148    -0.07600
C2218       C  0.83402152  0.82535022  0.83217552    -0.08300
C2219       C  0.84614748  0.86244766  0.83289032    -0.02900
C2220       C  0.83870107  0.87641210  0.87225194     0.03900
N2221       N  0.85422617  0.91373220  0.87818070     0.66400
H2222       H  0.81109532  0.86481396  0.93722711     0.15300
H2223       H  0.83928060  0.81363753  0.80259274     0.15000
N2224       N  0.80062362  0.76505939  0.86406690     0.74100
O2225       O  0.83313408  0.92677299  0.88947479    -0.39300
O2226       O  0.88783708  0.93052370  0.88600531    -0.39300
O2227       O  0.77261233  0.74689646  0.84264313    -0.40000
O2228       O  0.82168911  0.75210264  0.87268804    -0.40000
C2229       C  0.69321679  0.67015825  0.88215074    -0.12300
C2230       C  0.67825164  0.68667318  0.91019461     0.05600
C2231       C  0.64331549  0.68354412  0.90230239    -0.07600
C2232       C  0.62492868  0.66534662  0.86555011    -0.08300
C2233       C  0.64015417  0.64911531  0.83671705    -0.02900
C2234       C  0.67462961  0.65115082  0.84624749     0.03900
N2235       N  0.69143510  0.63389865  0.82015717     0.66400
H2236       H  0.71984203  0.67206786  0.88785943     0.15300
H2237       H  0.59816624  0.66320485  0.86110601     0.15000
N2238       N  0.62523955  0.69722473  0.93228967     0.74100
O2239       O  0.72199470  0.65309215  0.79966811    -0.39300
O2240       O  0.68307096  0.60189839  0.82961156    -0.39300
O2241       O  0.62304195  0.72491957  0.92164256    -0.40000
O2242       O  0.60543108  0.67794051  0.96471179    -0.40000
C2243       C  0.70095134  0.67277786  0.63167696    -0.12300
C2244       C  0.67928359  0.67607300  0.59994278     0.04700
C2245       C  0.64105309  0.65303308  0.60293582    -0.07600
C2246       C  0.62508852  0.62941793  0.63968941    -0.08300
C2247       C  0.64643725  0.62995136  0.67460928    -0.02900
C2248       C  0.68521677  0.64988650  0.66837312     0.03900
N2249       N  0.70921589  0.64755330  0.69911628     0.66400
H2250       H  0.73066876  0.68871583  0.62834054     0.15300
H2251       H  0.59584599  0.61170884  0.64158734     0.15000
N2252       N  0.61833955  0.65275184  0.56884060     0.74100
O2253       O  0.73545003  0.67588955  0.71218594    -0.39300
O2254       O  0.70960662  0.61821367  0.70464229    -0.39300
O2255       O  0.60961766  0.62922993  0.53981260    -0.40000
O2256       O  0.60087123  0.67046303  0.57321257    -0.40000
loop_ 
_geom_bond_atom_site_label_1 
_geom_bond_atom_site_label_2 
_geom_bond_distance 
_geom_bond_site_symmetry_2 
_ccdc_geom_bond_type 
O1           Ni9   1.882       .  S
O1           C11   1.272       .  A
O2         Ni291   1.893       .  S
O2           C12   1.274       .  A
O3           Ni9   1.950       .  S
O3           C13   1.290       .  A
O4         Ni291   1.944       .  S
O4           C14   1.287       .  A
O5          Ni10   1.891       .  S
O5           C14   1.276       .  A
O6         Ni292   1.898       .  S
O6           C13   1.274       .  A
O7          Ni10   1.935       .  S
O7           C12   1.286       .  A
O8         Ni292   1.921       .  S
O8           C11   1.286       .  A
Ni9         O284   1.893       .  S
Ni9         O286   1.944       .  S
Ni9        Ni292   2.389       .  S
Ni10        O288   1.898   1_554  S
Ni10        O290   1.921   1_554  S
Ni10       Ni291   2.389       .  S
C11         C256   1.470       .  S
C12         C228   1.467       .  S
C13         C242   1.484       .  S
C14         C270   1.474       .  S
O15        Ni305   1.929       .  S
O15          C25   1.283       .  A
O16         Ni23   1.926   1_554  S
O16          C26   1.283       .  A
O17        Ni305   1.912       .  S
O17          C27   1.281       .  A
O18         Ni23   1.906   1_554  S
O18          C28   1.280       .  A
O19         Ni24   1.924   1_554  S
O19        C1156   1.282       .  A
O20        Ni306   1.907       .  S
O20        C1155   1.279       .  A
O21         Ni24   1.933   1_554  S
O21        C1154   1.283       .  A
O22        Ni306   1.942       .  S
O22        C1153   1.285       .  A
Ni23        O297   1.929       .  S
Ni23        O299   1.912       .  S
Ni23      Ni1152   2.386       .  S
Ni24        O302   1.907       .  S
Ni24        O304   1.942       .  S
Ni24      Ni1151   2.386   1_455  S
C25        O1150   1.285       .  A
C25         C200   1.495       .  S
C26        O1149   1.283       .  A
C26         C172   1.487       .  S
C27        O1148   1.279       .  A
C27         C189   1.482       .  S
C28        O1147   1.282       .  A
C28         C214   1.476       .  S
O29        Ni319   1.948       .  S
O29         C603   1.287       .  A
O30         Ni37   1.938       .  S
O30         C604   1.286   1_545  A
O31        Ni319   1.900       .  S
O31         C605   1.276   1_545  A
O32         Ni37   1.906       .  S
O32         C606   1.278       .  A
O33         Ni38   1.915       .  S
O33          C42   1.281       .  A
O34        Ni320   1.922       .  S
O34          C41   1.285       .  A
O35         Ni38   1.918       .  S
O35          C40   1.279       .  A
O36        Ni320   1.915       .  S
O36          C39   1.280       .  A
Ni37        O311   1.948       .  S
Ni37        O313   1.900       .  S
Ni37       Ni602   2.388   1_545  S
Ni38        O316   1.922       .  S
Ni38        O318   1.915       .  S
Ni38       Ni601   2.388       .  S
C39         O593   1.287       .  A
C39         C116   1.492       .  S
C40         O594   1.286       .  A
C40         C147   1.484       .  S
C41         O595   1.276       .  A
C41         C158   1.480       .  S
C42         O596   1.278       .  A
C42         C133   1.466       .  S
C43          C44   1.505       .  S
C43          C49   1.532       .  S
C43        C1175   1.541       .  S
C43         C175   1.549       .  S
C44          H51   1.074       .  S
C44          C45   1.374       .  D
C45          C46   1.553       .  S
C45         C108   1.512       .  S
C46          C50   1.539       .  S
C46        C1176   1.555       .  S
C46          H52   1.110       .  S
C47        C1171   1.541   1_455  S
C47          H53   1.078       .  S
C47          C48   1.382       .  D
C48        C1174   1.555   1_455  S
C48          C84   1.500       .  S
C49          H54   1.087       .  S
C49          C50   1.357       .  D
C50         C186   1.470       .  S
C55          C61   1.548       .  S
C55          C59   1.534       .  S
C55        C1184   1.534       .  S
C55         C217   1.541       .  S
C56        C1183   1.534       .  S
C56          H63   1.079       .  S
C56          C57   1.363       .  D
C57        C1186   1.545   1_455  S
C57          C69   1.486       .  S
C58          C62   1.559       .  S
C58          C60   1.559       .  S
C58        C1185   1.545       .  S
C58          H64   1.101       .  S
C59          H65   1.077       .  S
C59          C60   1.356       .  D
C60          C96   1.482       .  S
C61          H66   1.085       .  S
C61          C62   1.374       .  D
C62         C203   1.535       .  S
C67          C68   1.532       .  S
C67          C73   1.526       .  S
C67          C71   1.505       .  S
C67         C259   1.522       .  S
C68          H75   1.083       .  S
C68          C69   1.367       .  D
C69          C70   1.567       .  S
C70          C74   1.552       .  S
C70          C72   1.563       .  S
C70          H76   1.109       .  S
C71          H77   1.081       .  S
C71          C72   1.365       .  D
C72          C81   1.512       .  S
C73          H78   1.086       .  S
C73          C74   1.365       .  D
C74         C273   1.496       .  S
C79          C80   1.512   1_565  S
C79          C85   1.536       .  S
C79         C647   1.539       .  S
C79         C144   1.551       .  S
C80          H87   1.077       .  S
C80          C81   1.372       .  D
C81          C82   1.553   1_545  S
C82          C86   1.543       .  S
C82         C648   1.548       .  S
C82          H88   1.110   1_565  S
C83         C643   1.539       .  S
C83          H89   1.079       .  S
C83          C84   1.379       .  D
C84         C646   1.548       .  S
C85          H90   1.081       .  S
C85          C86   1.360       .  D
C86         C161   1.476       .  S
C91          C97   1.544       .  S
C91          C95   1.513       .  S
C91         C656   1.529   1_545  S
C91         C130   1.531       .  S
C92         C655   1.529       .  S
C92          H99   1.078       .  S
C92          C93   1.362       .  D
C93         C658   1.572       .  S
C93         C105   1.503       .  S
C94          C98   1.563       .  S
C94          C96   1.560       .  S
C94         C657   1.572   1_545  S
C94         H100   1.102       .  S
C95         H101   1.085       .  S
C95          C96   1.348       .  D
C97         H666   1.084       .  S
C97          C98   1.367       .  D
C98         C119   1.526       .  S
H102        C661   1.084       .  S
C103        C104   1.530       .  S
C103        C109   1.538       .  S
C103        C107   1.512       .  S
C103        C231   1.543       .  S
C104        H111   1.078       .  S
C104        C105   1.366       .  D
C105        C106   1.572       .  S
C106        C110   1.569       .  S
C106        C108   1.559       .  S
C106        H112   1.109       .  S
C107        H113   1.080       .  S
C107        C108   1.363       .  D
C109        H114   1.081       .  S
C109        C110   1.369       .  D
C110        C245   1.509       .  S
C115        C116   1.400       .  A
C115        C120   1.410       .  A
C115        H122   1.084       .  S
C116        C681   1.405       .  A
C117        C118   1.408       .  A
C117        C680   1.405       .  A
C117        N124   1.428       .  S
C118        C119   1.420       .  A
C118        H123   1.083       .  S
C119        C684   1.418       .  A
C120        C683   1.418       .  A
C120        N121   1.422       .  S
N121        O125   1.260       .  A
N121        O690   1.262       .  A
N124        O128   1.262       .  A
N124        O691   1.262       .  A
O126        N685   1.262       .  A
O127        N688   1.262       .  A
C129        C130   1.411       .  A
C129        C134   1.390       .  A
C129        H136   1.082       .  S
C130        C695   1.429       .  A
C131        C132   1.409       .  A
C131        C694   1.429       .  A
C131        N138   1.448       .  S
C132        C133   1.397       .  A
C132        H137   1.084       .  S
C133        C698   1.403       .  A
C134        C697   1.403       .  A
C134        N135   1.430       .  S
N135        O139   1.261       .  A
N135        O704   1.262       .  A
N138        O142   1.264       .  A
N138        O705   1.261       .  A
O140        N699   1.262       .  A
O141        N702   1.261       .  A
C143        C148   1.404       .  A
C143        C708   1.413       .  A
C143        H150   1.080       .  S
C144        C145   1.422       .  A
C144        C707   1.413       .  A
C145        C146   1.406       .  A
C145        N152   1.430       .  S
C146        C711   1.401       .  A
C146        H151   1.084   1_565  S
C147        C148   1.410       .  A
C147        C710   1.401       .  A
C148        N149   1.430       .  S
N149        O153   1.261       .  A
N149        O154   1.262       .  A
N152        O156   1.262   1_565  A
N152        O155   1.262       .  A
C157        C158   1.401       .  A
C157        C162   1.393       .  A
C157        H164   1.084       .  S
C158        C723   1.419       .  A
C159        C160   1.400       .  A
C159        C722   1.419   1_545  A
C159        N166   1.430       .  S
C160        C161   1.398   1_545  A
C160        H165   1.084       .  S
C161        C726   1.414       .  A
C162        C725   1.414       .  A
C162        N163   1.432       .  S
N163        O167   1.261       .  A
N163        O732   1.262       .  A
N166        O170   1.262       .  A
N166        O733   1.262       .  A
O168        N727   1.262       .  A
O169        N730   1.262       .  A
C171        C176   1.415       .  A
C171       C1300   1.407       .  A
C171        H178   1.084       .  S
C172        C173   1.404       .  A
C172       C1299   1.407       .  A
C173        C174   1.396       .  A
C173        N180   1.430       .  S
C174        C175   1.415       .  A
C174        H179   1.083       .  S
C175       C1304   1.421       .  A
C176       C1303   1.421       .  A
C176        N177   1.428       .  S
N177        O181   1.261       .  A
N177        O182   1.262       .  A
N180        O184   1.262       .  A
N180        O183   1.262       .  A
C185        C186   1.399       .  A
C185        C190   1.391       .  A
C185        H192   1.085       .  S
C186        C187   1.402       .  A
C187        C188   1.400       .  A
C187        N194   1.426       .  S
C188        C189   1.409       .  A
C188        H193   1.084       .  S
C189        C190   1.414       .  A
C190        N191   1.429       .  S
N191        O195   1.262       .  A
N191       O1324   1.262       .  A
N194       O1326   1.261       .  A
N194        O197   1.262       .  A
O196       N1319   1.262       .  A
O198       N1322   1.261       .  A
C199        C200   1.398       .  A
C199        C204   1.412       .  A
C199        H206   1.084       .  S
C200       C1329   1.406       .  A
C201        C202   1.410       .  A
C201       C1328   1.406       .  A
C201        N208   1.429       .  S
C202       C1331   1.420       .  A
C202        H207   1.082       .  S
C203        C204   1.429       .  A
C203       C1330   1.420       .  A
C204        N205   1.426       .  S
N205        O209   1.262       .  A
N205        O210   1.263       .  A
N208        O212   1.262       .  A
N208        O211   1.262       .  A
C213        C214   1.398       .  A
C213        C218   1.399       .  A
C213        H220   1.085       .  S
C214        C215   1.406       .  A
C215        C216   1.399       .  A
C215        N222   1.429       .  S
C216        C217   1.413       .  A
C216        H221   1.084       .  S
C217        C218   1.425       .  A
C218        N219   1.427       .  S
N219       O1351   1.263       .  A
N219        O224   1.262       .  A
N222        O226   1.262       .  A
N222       O1353   1.262       .  A
O223       N1347   1.263       .  A
O225       N1350   1.262       .  A
C227        C228   1.392       .  A
C227        C232   1.401       .  A
C227        H234   1.084       .  S
C228        C229   1.405       .  A
C229        C230   1.397       .  A
C229        N236   1.430       .  S
C230        C231   1.411       .  A
C230        H235   1.077       .  S
C231        C232   1.435       .  A
C232        N233   1.434       .  S
N233        O237   1.260       .  A
N233        O238   1.260       .  A
N236        O240   1.262       .  A
N236        O239   1.262       .  A
C241        C242   1.396       .  A
C241        C246   1.407       .  A
C241        H248   1.084       .  S
C242        C243   1.413       .  A
C243        C244   1.402       .  A
C243        N250   1.429       .  S
C244        C245   1.409       .  A
C244        H249   1.084       .  S
C245        C246   1.413       .  A
C246        N247   1.416       .  S
N247        O251   1.262       .  A
N247        O252   1.261       .  A
N250        O254   1.262       .  A
N250        O253   1.262       .  A
C255        C256   1.392       .  A
C255        C260   1.389       .  A
C255        H262   1.084       .  S
C256        C257   1.415       .  A
C257        C258   1.397       .  A
C257        N264   1.430       .  S
C258        C259   1.404       .  A
C258        H263   1.078       .  S
C259        C260   1.427       .  A
C260        N261   1.432       .  S
N261        O265   1.261       .  A
N261        O266   1.262       .  A
N264        O268   1.262       .  A
N264        O267   1.262       .  A
C269        C270   1.397       .  A
C269        C274   1.392       .  A
C269        H276   1.085       .  S
C270        C271   1.409       .  A
C271        C272   1.409       .  A
C271        N278   1.428       .  S
C272        C273   1.406       .  A
C272        H277   1.078       .  S
C273        C274   1.416       .  A
C274        N275   1.431       .  S
N275        O279   1.263       .  A
N275        O280   1.262       .  A
N278        O282   1.262       .  A
N278        O281   1.262       .  A
O283       Ni291   1.882   1_556  S
O283        C293   1.272       .  A
O284        C294   1.274       .  A
O285       Ni291   1.950   1_556  S
O285        C295   1.290       .  A
O286        C296   1.287       .  A
O287       Ni292   1.891       .  S
O287        C296   1.276       .  A
O288        C295   1.274       .  A
O289       Ni292   1.935       .  S
O289        C294   1.286       .  A
O290        C293   1.286       .  A
C293        C538   1.470       .  S
C294        C510   1.467       .  S
C295        C524   1.484       .  S
C296        C552   1.474       .  S
O297        C307   1.283       .  A
O298       Ni305   1.926       .  S
O298        C308   1.283       .  A
O299        C309   1.281       .  A
O300       Ni305   1.906       .  S
O300        C310   1.280       .  A
O301       Ni306   1.924       .  S
O301       C1438   1.282       .  A
O302       C1437   1.279       .  A
O303       Ni306   1.933       .  S
O303       C1436   1.283       .  A
O304       C1435   1.285       .  A
Ni305     Ni1434   2.386       .  S
Ni306     Ni1433   2.386   1_455  S
C307       O1432   1.285       .  A
C307        C482   1.495       .  S
C308       O1431   1.283       .  A
C308        C454   1.487       .  S
C309       O1430   1.279       .  A
C309        C471   1.482       .  S
C310       O1429   1.282       .  A
C310        C496   1.476       .  S
O311        C885   1.287       .  A
O312       Ni319   1.938   1_556  S
O312        C886   1.286   1_545  A
O313        C887   1.276   1_545  A
O314       Ni319   1.906   1_556  S
O314        C888   1.278       .  A
O315       Ni320   1.915   1_556  S
O315        C324   1.281       .  A
O316        C323   1.285       .  A
O317       Ni320   1.918   1_556  S
O317        C322   1.279       .  A
O318        C321   1.280       .  A
Ni319      Ni884   2.388   1_545  S
Ni320      Ni883   2.388       .  S
C321        O875   1.287       .  A
C321        C398   1.492       .  S
C322        O876   1.286       .  A
C322        C429   1.484       .  S
C323        O877   1.276       .  A
C323        C440   1.480       .  S
C324        O878   1.278       .  A
C324        C415   1.466       .  S
C325        C326   1.505       .  S
C325        C331   1.532       .  S
C325       C1457   1.541       .  S
C325        C457   1.549       .  S
C326        H333   1.074       .  S
C326        C327   1.374       .  D
C327        C328   1.553       .  S
C327        C390   1.512       .  S
C328        C332   1.539       .  S
C328       C1458   1.555       .  S
C328        H334   1.110       .  S
C329       C1453   1.541   1_455  S
C329        H335   1.078       .  S
C329        C330   1.382       .  D
C330       C1456   1.555   1_455  S
C330        C366   1.500       .  S
C331        H336   1.087       .  S
C331        C332   1.357       .  D
C332        C468   1.470       .  S
C337       C1466   1.534       .  S
C337        C343   1.548       .  S
C337        C341   1.534       .  S
C337        C499   1.541       .  S
C338       C1465   1.534       .  S
C338        H345   1.079       .  S
C338        C339   1.363       .  D
C339       C1468   1.545   1_455  S
C339        C351   1.486       .  S
C340       C1467   1.545       .  S
C340        C344   1.559       .  S
C340        C342   1.559       .  S
C340        H346   1.101       .  S
C341        H347   1.077       .  S
C341        C342   1.356       .  D
C342        C378   1.482       .  S
C343        H348   1.085       .  S
C343        C344   1.374       .  D
C344        C485   1.535       .  S
C349        C350   1.532       .  S
C349        C355   1.526       .  S
C349        C353   1.505       .  S
C349        C541   1.522       .  S
C350        H357   1.083       .  S
C350        C351   1.367       .  D
C351        C352   1.567       .  S
C352        C356   1.552       .  S
C352        C354   1.563       .  S
C352        H358   1.109       .  S
C353        H359   1.081       .  S
C353        C354   1.365       .  D
C354        C363   1.512       .  S
C355        H360   1.086       .  S
C355        C356   1.365       .  D
C356        C555   1.496       .  S
C361        C362   1.512   1_565  S
C361        C367   1.536       .  S
C361        C929   1.539       .  S
C361        C426   1.551       .  S
C362        H369   1.077       .  S
C362        C363   1.372       .  D
C363        C364   1.553   1_545  S
C364        C368   1.543       .  S
C364        C930   1.548       .  S
C364        H370   1.110   1_565  S
C365        C925   1.539       .  S
C365        H371   1.079       .  S
C365        C366   1.379       .  D
C366        C928   1.548       .  S
C367        H372   1.081       .  S
C367        C368   1.360       .  D
C368        C443   1.476       .  S
C373        C938   1.529   1_545  S
C373        C379   1.544       .  S
C373        C377   1.513       .  S
C373        C412   1.531       .  S
C374        C937   1.529       .  S
C374        H381   1.078       .  S
C374        C375   1.362       .  D
C375        C940   1.572       .  S
C375        C387   1.503       .  S
C376        C939   1.572   1_545  S
C376        C380   1.563       .  S
C376        C378   1.560       .  S
C376        H382   1.102       .  S
C377        H383   1.085       .  S
C377        C378   1.348       .  D
C379        H948   1.084       .  S
C379        C380   1.367       .  D
C380        C401   1.526       .  S
H384        C943   1.084       .  S
C385        C386   1.530       .  S
C385        C391   1.538       .  S
C385        C389   1.512       .  S
C385        C513   1.543       .  S
C386        H393   1.078       .  S
C386        C387   1.366       .  D
C387        C388   1.572       .  S
C388        C392   1.569       .  S
C388        C390   1.559       .  S
C388        H394   1.109       .  S
C389        H395   1.080       .  S
C389        C390   1.363       .  D
C391        H396   1.081       .  S
C391        C392   1.369       .  D
C392        C527   1.509       .  S
C397        C398   1.400       .  A
C397        C402   1.410       .  A
C397        H404   1.084       .  S
C398        C963   1.405       .  A
C399        C962   1.405       .  A
C399        C400   1.408       .  A
C399        N406   1.428       .  S
C400        C401   1.420       .  A
C400        H405   1.083       .  S
C401        C966   1.418       .  A
C402        C965   1.418       .  A
C402        N403   1.422       .  S
N403        O407   1.260       .  A
N403        O972   1.262       .  A
N406        O410   1.262       .  A
N406        O973   1.262       .  A
O408        N967   1.262       .  A
O409        N970   1.262       .  A
C411        C412   1.411       .  A
C411        C416   1.390       .  A
C411        H418   1.082       .  S
C412        C977   1.429       .  A
C413        C976   1.429       .  A
C413        C414   1.409       .  A
C413        N420   1.448       .  S
C414        C415   1.397       .  A
C414        H419   1.084       .  S
C415        C980   1.403       .  A
C416        C979   1.403       .  A
C416        N417   1.430       .  S
N417        O421   1.261       .  A
N417        O986   1.262       .  A
N420        O424   1.264       .  A
N420        O987   1.261       .  A
O422        N981   1.262       .  A
O423        N984   1.261       .  A
C425        C990   1.413       .  A
C425        C430   1.404       .  A
C425        H432   1.080       .  S
C426        C989   1.413       .  A
C426        C427   1.422       .  A
C427        C428   1.406       .  A
C427        N434   1.430       .  S
C428        C993   1.401       .  A
C428        H433   1.084   1_565  S
C429        C992   1.401       .  A
C429        C430   1.410       .  A
C430        N431   1.430       .  S
N431        O435   1.261       .  A
N431        O436   1.262       .  A
N434        O438   1.262   1_565  A
N434        O437   1.262       .  A
C439        C440   1.401       .  A
C439        C444   1.393       .  A
C439        H446   1.084       .  S
C440       C1005   1.419       .  A
C441       C1004   1.419   1_545  A
C441        C442   1.400       .  A
C441        N448   1.430       .  S
C442        C443   1.398   1_545  A
C442        H447   1.084       .  S
C443       C1008   1.414       .  A
C444       C1007   1.414       .  A
C444        N445   1.432       .  S
N445        O449   1.261       .  A
N445       O1014   1.262       .  A
N448        O452   1.262       .  A
N448       O1015   1.262       .  A
O450       N1009   1.262       .  A
O451       N1012   1.262       .  A
C453       C1582   1.407       .  A
C453        C458   1.415       .  A
C453        H460   1.084       .  S
C454       C1581   1.407       .  A
C454        C455   1.404       .  A
C455        C456   1.396       .  A
C455        N462   1.430       .  S
C456        C457   1.415       .  A
C456        H461   1.083       .  S
C457       C1586   1.421       .  A
C458       C1585   1.421       .  A
C458        N459   1.428       .  S
N459        O463   1.261       .  A
N459        O464   1.262       .  A
N462        O466   1.262       .  A
N462        O465   1.262       .  A
C467        C468   1.399       .  A
C467        C472   1.391       .  A
C467        H474   1.085       .  S
C468        C469   1.402       .  A
C469        C470   1.400       .  A
C469        N476   1.426       .  S
C470        C471   1.409       .  A
C470        H475   1.084       .  S
C471        C472   1.414       .  A
C472        N473   1.429       .  S
N473        O477   1.262       .  A
N473       O1606   1.262       .  A
N476       O1608   1.261       .  A
N476        O479   1.262       .  A
O478       N1601   1.262       .  A
O480       N1604   1.261       .  A
C481        C482   1.398       .  A
C481        C486   1.412       .  A
C481        H488   1.084       .  S
C482       C1611   1.406       .  A
C483       C1610   1.406       .  A
C483        C484   1.410       .  A
C483        N490   1.429       .  S
C484       C1613   1.420       .  A
C484        H489   1.082       .  S
C485       C1612   1.420       .  A
C485        C486   1.429       .  A
C486        N487   1.426       .  S
N487        O491   1.262       .  A
N487        O492   1.263       .  A
N490        O494   1.262       .  A
N490        O493   1.262       .  A
C495        C496   1.398       .  A
C495        C500   1.399       .  A
C495        H502   1.085       .  S
C496        C497   1.406       .  A
C497        C498   1.399       .  A
C497        N504   1.429       .  S
C498        C499   1.413       .  A
C498        H503   1.084       .  S
C499        C500   1.425       .  A
C500        N501   1.427       .  S
N501       O1633   1.263       .  A
N501        O506   1.262       .  A
N504        O508   1.262       .  A
N504       O1635   1.262       .  A
O505       N1629   1.263       .  A
O507       N1632   1.262       .  A
C509        C510   1.392       .  A
C509        C514   1.401       .  A
C509        H516   1.084       .  S
C510        C511   1.405       .  A
C511        C512   1.397       .  A
C511        N518   1.430       .  S
C512        C513   1.411       .  A
C512        H517   1.077       .  S
C513        C514   1.435       .  A
C514        N515   1.434       .  S
N515        O519   1.260       .  A
N515        O520   1.260       .  A
N518        O522   1.262       .  A
N518        O521   1.262       .  A
C523        C524   1.396       .  A
C523        C528   1.407       .  A
C523        H530   1.084       .  S
C524        C525   1.413       .  A
C525        C526   1.402       .  A
C525        N532   1.429       .  S
C526        C527   1.409       .  A
C526        H531   1.084       .  S
C527        C528   1.413       .  A
C528        N529   1.416       .  S
N529        O533   1.262       .  A
N529        O534   1.261       .  A
N532        O536   1.262       .  A
N532        O535   1.262       .  A
C537        C538   1.392       .  A
C537        C542   1.389       .  A
C537        H544   1.084       .  S
C538        C539   1.415       .  A
C539        C540   1.397       .  A
C539        N546   1.430       .  S
C540        C541   1.404       .  A
C540        H545   1.078       .  S
C541        C542   1.427       .  A
C542        N543   1.432       .  S
N543        O547   1.261       .  A
N543        O548   1.262       .  A
N546        O550   1.262       .  A
N546        O549   1.262       .  A
C551        C552   1.397       .  A
C551        C556   1.392       .  A
C551        H558   1.085       .  S
C552        C553   1.409       .  A
C553        C554   1.409       .  A
C553        N560   1.428       .  S
C554        C555   1.406       .  A
C554        H559   1.078       .  S
C555        C556   1.416       .  A
C556        N557   1.431       .  S
N557        O561   1.263       .  A
N557        O562   1.262       .  A
N560        O564   1.262       .  A
N560        O563   1.262       .  A
O565       Ni573   1.882       .  S
O565        C575   1.272       .  A
O566       Ni855   1.893       .  S
O566        C576   1.274       .  A
O567       Ni573   1.950       .  S
O567        C577   1.290       .  A
O568       Ni855   1.944       .  S
O568        C578   1.287       .  A
O569       Ni574   1.891       .  S
O569        C578   1.276       .  A
O570       Ni856   1.898       .  S
O570        C577   1.274       .  A
O571       Ni574   1.935       .  S
O571        C576   1.286       .  A
O572       Ni856   1.921       .  S
O572        C575   1.286       .  A
Ni573       O848   1.893       .  S
Ni573       O850   1.944       .  S
Ni573      Ni856   2.389       .  S
Ni574       O852   1.898   1_554  S
Ni574       O854   1.921   1_554  S
Ni574      Ni855   2.389       .  S
C575        C820   1.470       .  S
C576        C792   1.467       .  S
C577        C806   1.484       .  S
C578        C834   1.474       .  S
O579       Ni869   1.929       .  S
O579        C589   1.283       .  A
O580       Ni587   1.926   1_554  S
O580        C590   1.283       .  A
O581       Ni869   1.912       .  S
O581        C591   1.281       .  A
O582       Ni587   1.906   1_554  S
O582        C592   1.280       .  A
O583       Ni588   1.924   1_554  S
O583       C1720   1.282       .  A
O584       Ni870   1.907       .  S
O584       C1719   1.279       .  A
O585       Ni588   1.933   1_554  S
O585       C1718   1.283       .  A
O586       Ni870   1.942       .  S
O586       C1717   1.285       .  A
Ni587       O861   1.929       .  S
Ni587       O863   1.912       .  S
Ni587     Ni1716   2.386       .  S
Ni588       O866   1.907       .  S
Ni588       O868   1.942       .  S
Ni588     Ni1715   2.386   1_455  S
C589       O1714   1.285       .  A
C589        C764   1.495       .  S
C590       O1713   1.283       .  A
C590        C736   1.487       .  S
C591       O1712   1.279       .  A
C591        C753   1.482       .  S
C592       O1711   1.282       .  A
C592        C778   1.476       .  S
O593       Ni883   1.948       .  S
O594       Ni601   1.938       .  S
O595       Ni883   1.900       .  S
O596       Ni601   1.906       .  S
O597       Ni602   1.915       .  S
O597        C606   1.281   1_565  A
O598       Ni884   1.922       .  S
O598        C605   1.285       .  A
O599       Ni602   1.918       .  S
O599        C604   1.279       .  A
O600       Ni884   1.915       .  S
O600        C603   1.280   1_565  A
Ni601       O875   1.948       .  S
Ni601       O877   1.900       .  S
Ni602       O880   1.922       .  S
Ni602       O882   1.915       .  S
C603        C680   1.492       .  S
C604        C711   1.484       .  S
C605        C722   1.480       .  S
C606        C697   1.466       .  S
C607        C608   1.505       .  S
C607        C613   1.532       .  S
C607       C1739   1.541       .  S
C607        C739   1.549       .  S
C608        H615   1.074       .  S
C608        C609   1.374       .  D
C609        C610   1.553       .  S
C609        C672   1.512       .  S
C610        C614   1.539       .  S
C610       C1740   1.555       .  S
C610        H616   1.110       .  S
C611       C1735   1.541   1_455  S
C611        H617   1.078       .  S
C611        C612   1.382       .  D
C612       C1738   1.555   1_455  S
C612        C648   1.500       .  S
C613        H618   1.087       .  S
C613        C614   1.357       .  D
C614        C750   1.470       .  S
C619       C1748   1.534       .  S
C619        C625   1.548       .  S
C619        C623   1.534       .  S
C619        C781   1.541       .  S
C620       C1747   1.534       .  S
C620        H627   1.079       .  S
C620        C621   1.363       .  D
C621       C1750   1.545   1_455  S
C621        C633   1.486       .  S
C622       C1749   1.545       .  S
C622        C626   1.559       .  S
C622        C624   1.559       .  S
C622        H628   1.101       .  S
C623        H629   1.077       .  S
C623        C624   1.356       .  D
C624        C660   1.482       .  S
C625        H630   1.085       .  S
C625        C626   1.374       .  D
C626        C767   1.535       .  S
C631        C632   1.532       .  S
C631        C637   1.526       .  S
C631        C635   1.505       .  S
C631        C823   1.522       .  S
C632        H639   1.083       .  S
C632        C633   1.367       .  D
C633        C634   1.567       .  S
C634        C638   1.552       .  S
C634        C636   1.563       .  S
C634        H640   1.109       .  S
C635        H641   1.081       .  S
C635        C636   1.365       .  D
C636        C645   1.512       .  S
C637        H642   1.086       .  S
C637        C638   1.365       .  D
C638        C837   1.496       .  S
C643        C644   1.512       .  S
C643        C649   1.536       .  S
C643        C708   1.551       .  S
C644        H651   1.077       .  S
C644        C645   1.372       .  D
C645        C646   1.553       .  S
C646        C650   1.543       .  S
C646        H652   1.110       .  S
C647        H653   1.079       .  S
C647        C648   1.379       .  D
C649        H654   1.081       .  S
C649        C650   1.360       .  D
C650        C725   1.476       .  S
C655        C661   1.544       .  S
C655        C659   1.513       .  S
C655        C694   1.531       .  S
C656        H663   1.078       .  S
C656        C657   1.362       .  D
C657        C669   1.503       .  S
C658        C662   1.563       .  S
C658        C660   1.560       .  S
C658        H664   1.102       .  S
C659        H665   1.085       .  S
C659        C660   1.348       .  D
C661        C662   1.367       .  D
C662        C683   1.526       .  S
C667        C668   1.530       .  S
C667        C673   1.538       .  S
C667        C671   1.512       .  S
C667        C795   1.543       .  S
C668        H675   1.078       .  S
C668        C669   1.366       .  D
C669        C670   1.572       .  S
C670        C674   1.569       .  S
C670        C672   1.559       .  S
C670        H676   1.109       .  S
C671        H677   1.080       .  S
C671        C672   1.363       .  D
C673        H678   1.081       .  S
C673        C674   1.369       .  D
C674        C809   1.509       .  S
C679        C680   1.400       .  A
C679        C684   1.410       .  A
C679        H686   1.084   1_545  S
C681        C682   1.408       .  A
C681        N688   1.428       .  S
C682        C683   1.420       .  A
C682        H687   1.083       .  S
C684        N685   1.422   1_545  S
N685        O689   1.260       .  A
N688        O692   1.262       .  A
C693        C694   1.411       .  A
C693        C698   1.390       .  A
C693        H700   1.082       .  S
C695        C696   1.409       .  A
C695        N702   1.448       .  S
C696        C697   1.397       .  A
C696        H701   1.084   1_545  S
C698        N699   1.430       .  S
N699        O703   1.261       .  A
N702        O706   1.264   1_545  A
C707        C712   1.404       .  A
C707        H714   1.080       .  S
C708        C709   1.422       .  A
C709        C710   1.406       .  A
C709        N716   1.430       .  S
C710        H715   1.084       .  S
C711        C712   1.410       .  A
C712        N713   1.430       .  S
N713        O717   1.261       .  A
N713        O718   1.262       .  A
N716        O720   1.262       .  A
N716        O719   1.262       .  A
C721        C722   1.401       .  A
C721        C726   1.393       .  A
C721        H728   1.084       .  S
C723        C724   1.400       .  A
C723        N730   1.430       .  S
C724        C725   1.398       .  A
C724        H729   1.084       .  S
C726        N727   1.432       .  S
N727        O731   1.261       .  A
N730        O734   1.262       .  A
C735       C1864   1.407       .  A
C735        C740   1.415       .  A
C735        H742   1.084       .  S
C736       C1863   1.407       .  A
C736        C737   1.404       .  A
C737        C738   1.396       .  A
C737        N744   1.430       .  S
C738        C739   1.415       .  A
C738        H743   1.083       .  S
C739       C1868   1.421       .  A
C740       C1867   1.421       .  A
C740        N741   1.428       .  S
N741        O745   1.261       .  A
N741        O746   1.262       .  A
N744        O748   1.262       .  A
N744        O747   1.262       .  A
C749        C750   1.399       .  A
C749        C754   1.391       .  A
C749        H756   1.085       .  S
C750        C751   1.402       .  A
C751        C752   1.400       .  A
C751        N758   1.426       .  S
C752        C753   1.409       .  A
C752        H757   1.084       .  S
C753        C754   1.414       .  A
C754        N755   1.429       .  S
N755        O759   1.262       .  A
N755       O1888   1.262       .  A
N758       O1890   1.261       .  A
N758        O761   1.262       .  A
O760       N1883   1.262       .  A
O762       N1886   1.261       .  A
C763        C764   1.398       .  A
C763        C768   1.412       .  A
C763        H770   1.084       .  S
C764       C1893   1.406       .  A
C765       C1892   1.406       .  A
C765        C766   1.410       .  A
C765        N772   1.429       .  S
C766       C1895   1.420       .  A
C766        H771   1.082       .  S
C767       C1894   1.420       .  A
C767        C768   1.429       .  A
C768        N769   1.426       .  S
N769        O773   1.262       .  A
N769        O774   1.263       .  A
N772        O776   1.262       .  A
N772        O775   1.262       .  A
C777        C778   1.398       .  A
C777        C782   1.399       .  A
C777        H784   1.085       .  S
C778        C779   1.406       .  A
C779        C780   1.399       .  A
C779        N786   1.429       .  S
C780        C781   1.413       .  A
C780        H785   1.084       .  S
C781        C782   1.425       .  A
C782        N783   1.427       .  S
N783       O1915   1.263       .  A
N783        O788   1.262       .  A
N786        O790   1.262       .  A
N786       O1917   1.262       .  A
O787       N1911   1.263       .  A
O789       N1914   1.262       .  A
C791        C792   1.392       .  A
C791        C796   1.401       .  A
C791        H798   1.084       .  S
C792        C793   1.405       .  A
C793        C794   1.397       .  A
C793        N800   1.430       .  S
C794        C795   1.411       .  A
C794        H799   1.077       .  S
C795        C796   1.435       .  A
C796        N797   1.434       .  S
N797        O801   1.260       .  A
N797        O802   1.260       .  A
N800        O804   1.262       .  A
N800        O803   1.262       .  A
C805        C806   1.396       .  A
C805        C810   1.407       .  A
C805        H812   1.084       .  S
C806        C807   1.413       .  A
C807        C808   1.402       .  A
C807        N814   1.429       .  S
C808        C809   1.409       .  A
C808        H813   1.084       .  S
C809        C810   1.413       .  A
C810        N811   1.416       .  S
N811        O815   1.262       .  A
N811        O816   1.261       .  A
N814        O818   1.262       .  A
N814        O817   1.262       .  A
C819        C820   1.392       .  A
C819        C824   1.389       .  A
C819        H826   1.084       .  S
C820        C821   1.415       .  A
C821        C822   1.397       .  A
C821        N828   1.430       .  S
C822        C823   1.404       .  A
C822        H827   1.078       .  S
C823        C824   1.427       .  A
C824        N825   1.432       .  S
N825        O829   1.261       .  A
N825        O830   1.262       .  A
N828        O832   1.262       .  A
N828        O831   1.262       .  A
C833        C834   1.397       .  A
C833        C838   1.392       .  A
C833        H840   1.085       .  S
C834        C835   1.409       .  A
C835        C836   1.409       .  A
C835        N842   1.428       .  S
C836        C837   1.406       .  A
C836        H841   1.078       .  S
C837        C838   1.416       .  A
C838        N839   1.431       .  S
N839        O843   1.263       .  A
N839        O844   1.262       .  A
N842        O846   1.262       .  A
N842        O845   1.262       .  A
O847       Ni855   1.882   1_556  S
O847        C857   1.272       .  A
O848        C858   1.274       .  A
O849       Ni855   1.950   1_556  S
O849        C859   1.290       .  A
O850        C860   1.287       .  A
O851       Ni856   1.891       .  S
O851        C860   1.276       .  A
O852        C859   1.274       .  A
O853       Ni856   1.935       .  S
O853        C858   1.286       .  A
O854        C857   1.286       .  A
C857       C1102   1.470       .  S
C858       C1074   1.467       .  S
C859       C1088   1.484       .  S
C860       C1116   1.474       .  S
O861        C871   1.283       .  A
O862       Ni869   1.926       .  S
O862        C872   1.283       .  A
O863        C873   1.281       .  A
O864       Ni869   1.906       .  S
O864        C874   1.280       .  A
O865       Ni870   1.924       .  S
O865       C2002   1.282       .  A
O866       C2001   1.279       .  A
O867       Ni870   1.933       .  S
O867       C2000   1.283       .  A
O868       C1999   1.285       .  A
Ni869     Ni1998   2.386       .  S
Ni870     Ni1997   2.386   1_455  S
C871       O1996   1.285       .  A
C871       C1046   1.495       .  S
C872       O1995   1.283       .  A
C872       C1018   1.487       .  S
C873       O1994   1.279       .  A
C873       C1035   1.482       .  S
C874       O1993   1.282       .  A
C874       C1060   1.476       .  S
O876       Ni883   1.938   1_556  S
O878       Ni883   1.906   1_556  S
O879       Ni884   1.915   1_556  S
O879        C888   1.281   1_565  A
O880        C887   1.285       .  A
O881       Ni884   1.918   1_556  S
O881        C886   1.279       .  A
O882        C885   1.280   1_565  A
C885        C962   1.492       .  S
C886        C993   1.484       .  S
C887       C1004   1.480       .  S
C888        C979   1.466       .  S
C889        C890   1.505       .  S
C889        C895   1.532       .  S
C889       C2021   1.541       .  S
C889       C1021   1.549       .  S
C890        H897   1.074       .  S
C890        C891   1.374       .  D
C891        C892   1.553       .  S
C891        C954   1.512       .  S
C892        C896   1.539       .  S
C892       C2022   1.555       .  S
C892        H898   1.110       .  S
C893       C2017   1.541   1_455  S
C893        H899   1.078       .  S
C893        C894   1.382       .  D
C894       C2020   1.555   1_455  S
C894        C930   1.500       .  S
C895        H900   1.087       .  S
C895        C896   1.357       .  D
C896       C1032   1.470       .  S
C901       C2030   1.534       .  S
C901        C907   1.548       .  S
C901        C905   1.534       .  S
C901       C1063   1.541       .  S
C902       C2029   1.534       .  S
C902        H909   1.079       .  S
C902        C903   1.363       .  D
C903       C2032   1.545   1_455  S
C903        C915   1.486       .  S
C904       C2031   1.545       .  S
C904        C908   1.559       .  S
C904        C906   1.559       .  S
C904        H910   1.101       .  S
C905        H911   1.077       .  S
C905        C906   1.356       .  D
C906        C942   1.482       .  S
C907        H912   1.085       .  S
C907        C908   1.374       .  D
C908       C1049   1.535       .  S
C913        C914   1.532       .  S
C913        C919   1.526       .  S
C913        C917   1.505       .  S
C913       C1105   1.522       .  S
C914        H921   1.083       .  S
C914        C915   1.367       .  D
C915        C916   1.567       .  S
C916        C920   1.552       .  S
C916        C918   1.563       .  S
C916        H922   1.109       .  S
C917        H923   1.081       .  S
C917        C918   1.365       .  D
C918        C927   1.512       .  S
C919        H924   1.086       .  S
C919        C920   1.365       .  D
C920       C1119   1.496       .  S
C925        C926   1.512       .  S
C925        C931   1.536       .  S
C925        C990   1.551       .  S
C926        H933   1.077       .  S
C926        C927   1.372       .  D
C927        C928   1.553       .  S
C928        C932   1.543       .  S
C928        H934   1.110       .  S
C929        H935   1.079       .  S
C929        C930   1.379       .  D
C931        H936   1.081       .  S
C931        C932   1.360       .  D
C932       C1007   1.476       .  S
C937        C943   1.544       .  S
C937        C941   1.513       .  S
C937        C976   1.531       .  S
C938        H945   1.078       .  S
C938        C939   1.362       .  D
C939        C951   1.503       .  S
C940        C944   1.563       .  S
C940        C942   1.560       .  S
C940        H946   1.102       .  S
C941        H947   1.085       .  S
C941        C942   1.348       .  D
C943        C944   1.367       .  D
C944        C965   1.526       .  S
C949        C950   1.530       .  S
C949        C955   1.538       .  S
C949        C953   1.512       .  S
C949       C1077   1.543       .  S
C950        H957   1.078       .  S
C950        C951   1.366       .  D
C951        C952   1.572       .  S
C952        C956   1.569       .  S
C952        C954   1.559       .  S
C952        H958   1.109       .  S
C953        H959   1.080       .  S
C953        C954   1.363       .  D
C955        H960   1.081       .  S
C955        C956   1.369       .  D
C956       C1091   1.509       .  S
C961        C962   1.400       .  A
C961        C966   1.410       .  A
C961        H968   1.084   1_545  S
C963        C964   1.408       .  A
C963        N970   1.428       .  S
C964        C965   1.420       .  A
C964        H969   1.083       .  S
C966        N967   1.422   1_545  S
N967        O971   1.260       .  A
N970        O974   1.262       .  A
C975        C976   1.411       .  A
C975        C980   1.390       .  A
C975        H982   1.082       .  S
C977        C978   1.409       .  A
C977        N984   1.448       .  S
C978        C979   1.397       .  A
C978        H983   1.084   1_545  S
C980        N981   1.430       .  S
N981        O985   1.261       .  A
N984        O988   1.264   1_545  A
C989        C994   1.404       .  A
C989        H996   1.080       .  S
C990        C991   1.422       .  A
C991        C992   1.406       .  A
C991        N998   1.430       .  S
C992        H997   1.084       .  S
C993        C994   1.410       .  A
C994        N995   1.430       .  S
N995        O999   1.261       .  A
N995       O1000   1.262       .  A
N998       O1002   1.262       .  A
N998       O1001   1.262       .  A
C1003      C1004   1.401       .  A
C1003      C1008   1.393       .  A
C1003      H1010   1.084       .  S
C1005      C1006   1.400       .  A
C1005      N1012   1.430       .  S
C1006      C1007   1.398       .  A
C1006      H1011   1.084       .  S
C1008      N1009   1.432       .  S
N1009      O1013   1.261       .  A
N1012      O1016   1.262       .  A
C1017      C2146   1.407       .  A
C1017      C1022   1.415       .  A
C1017      H1024   1.084       .  S
C1018      C2145   1.407       .  A
C1018      C1019   1.404       .  A
C1019      C1020   1.396       .  A
C1019      N1026   1.430       .  S
C1020      C1021   1.415       .  A
C1020      H1025   1.083       .  S
C1021      C2150   1.421       .  A
C1022      C2149   1.421       .  A
C1022      N1023   1.428       .  S
N1023      O1027   1.261       .  A
N1023      O1028   1.262       .  A
N1026      O1030   1.262       .  A
N1026      O1029   1.262       .  A
C1031      C1032   1.399       .  A
C1031      C1036   1.391       .  A
C1031      H1038   1.085       .  S
C1032      C1033   1.402       .  A
C1033      C1034   1.400       .  A
C1033      N1040   1.426       .  S
C1034      C1035   1.409       .  A
C1034      H1039   1.084       .  S
C1035      C1036   1.414       .  A
C1036      N1037   1.429       .  S
N1037      O1041   1.262       .  A
N1037      O2170   1.262       .  A
N1040      O2172   1.261       .  A
N1040      O1043   1.262       .  A
O1042      N2165   1.262       .  A
O1044      N2168   1.261       .  A
C1045      C1046   1.398       .  A
C1045      C1050   1.412       .  A
C1045      H1052   1.084       .  S
C1046      C2175   1.406       .  A
C1047      C2174   1.406       .  A
C1047      C1048   1.410       .  A
C1047      N1054   1.429       .  S
C1048      C2177   1.420       .  A
C1048      H1053   1.082       .  S
C1049      C2176   1.420       .  A
C1049      C1050   1.429       .  A
C1050      N1051   1.426       .  S
N1051      O1055   1.262       .  A
N1051      O1056   1.263       .  A
N1054      O1058   1.262       .  A
N1054      O1057   1.262       .  A
C1059      C1060   1.398       .  A
C1059      C1064   1.399       .  A
C1059      H1066   1.085       .  S
C1060      C1061   1.406       .  A
C1061      C1062   1.399       .  A
C1061      N1068   1.429       .  S
C1062      C1063   1.413       .  A
C1062      H1067   1.084       .  S
C1063      C1064   1.425       .  A
C1064      N1065   1.427       .  S
N1065      O2197   1.263       .  A
N1065      O1070   1.262       .  A
N1068      O1072   1.262       .  A
N1068      O2199   1.262       .  A
O1069      N2193   1.263       .  A
O1071      N2196   1.262       .  A
C1073      C1074   1.392       .  A
C1073      C1078   1.401       .  A
C1073      H1080   1.084       .  S
C1074      C1075   1.405       .  A
C1075      C1076   1.397       .  A
C1075      N1082   1.430       .  S
C1076      C1077   1.411       .  A
C1076      H1081   1.077       .  S
C1077      C1078   1.435       .  A
C1078      N1079   1.434       .  S
N1079      O1083   1.260       .  A
N1079      O1084   1.260       .  A
N1082      O1086   1.262       .  A
N1082      O1085   1.262       .  A
C1087      C1088   1.396       .  A
C1087      C1092   1.407       .  A
C1087      H1094   1.084       .  S
C1088      C1089   1.413       .  A
C1089      C1090   1.402       .  A
C1089      N1096   1.429       .  S
C1090      C1091   1.409       .  A
C1090      H1095   1.084       .  S
C1091      C1092   1.413       .  A
C1092      N1093   1.416       .  S
N1093      O1097   1.262       .  A
N1093      O1098   1.261       .  A
N1096      O1100   1.262       .  A
N1096      O1099   1.262       .  A
C1101      C1102   1.392       .  A
C1101      C1106   1.389       .  A
C1101      H1108   1.084       .  S
C1102      C1103   1.415       .  A
C1103      C1104   1.397       .  A
C1103      N1110   1.430       .  S
C1104      C1105   1.404       .  A
C1104      H1109   1.078       .  S
C1105      C1106   1.427       .  A
C1106      N1107   1.432       .  S
N1107      O1111   1.261       .  A
N1107      O1112   1.262       .  A
N1110      O1114   1.262       .  A
N1110      O1113   1.262       .  A
C1115      C1116   1.397       .  A
C1115      C1120   1.392       .  A
C1115      H1122   1.085       .  S
C1116      C1117   1.409       .  A
C1117      C1118   1.409       .  A
C1117      N1124   1.428       .  S
C1118      C1119   1.406       .  A
C1118      H1123   1.078       .  S
C1119      C1120   1.416       .  A
C1120      N1121   1.431       .  S
N1121      O1125   1.263       .  A
N1121      O1126   1.262       .  A
N1124      O1128   1.262       .  A
N1124      O1127   1.262       .  A
O1129     Ni1137   1.882       .  S
O1129      C1139   1.272       .  A
O1130     Ni1419   1.893       .  S
O1130      C1140   1.274       .  A
O1131     Ni1137   1.950       .  S
O1131      C1141   1.290       .  A
O1132     Ni1419   1.944       .  S
O1132      C1142   1.287       .  A
O1133     Ni1138   1.891       .  S
O1133      C1142   1.276       .  A
O1134     Ni1420   1.898       .  S
O1134      C1141   1.274       .  A
O1135     Ni1138   1.935       .  S
O1135      C1140   1.286       .  A
O1136     Ni1420   1.921       .  S
O1136      C1139   1.286       .  A
Ni1137     O1412   1.893       .  S
Ni1137     O1414   1.944       .  S
Ni1137    Ni1420   2.389       .  S
Ni1138     O1416   1.898   1_554  S
Ni1138     O1418   1.921   1_554  S
Ni1138    Ni1419   2.389       .  S
C1139      C1384   1.470       .  S
C1140      C1356   1.467       .  S
C1141      C1370   1.484       .  S
C1142      C1398   1.474       .  S
O1143     Ni1433   1.929       .  S
O1143      C1153   1.283   1_655  A
O1144     Ni1151   1.926   1_554  S
O1144      C1154   1.283   1_655  A
O1145     Ni1433   1.912       .  S
O1145      C1155   1.281   1_655  A
O1146     Ni1151   1.906   1_554  S
O1146      C1156   1.280   1_655  A
O1147     Ni1152   1.924   1_554  S
O1148     Ni1434   1.907       .  S
O1149     Ni1152   1.933   1_554  S
O1150     Ni1434   1.942       .  S
Ni1151     O1425   1.929       .  S
Ni1151     O1427   1.912       .  S
Ni1152     O1430   1.907       .  S
Ni1152     O1432   1.942       .  S
C1153      C1328   1.495       .  S
C1154      C1300   1.487       .  S
C1155      C1317   1.482       .  S
C1156      C1342   1.476       .  S
O1157     Ni1447   1.948       .  S
O1157      C1731   1.287       .  A
O1158     Ni1165   1.938       .  S
O1158      C1732   1.286   1_545  A
O1159     Ni1447   1.900       .  S
O1159      C1733   1.276   1_545  A
O1160     Ni1165   1.906       .  S
O1160      C1734   1.278       .  A
O1161     Ni1166   1.915       .  S
O1161      C1170   1.281       .  A
O1162     Ni1448   1.922       .  S
O1162      C1169   1.285       .  A
O1163     Ni1166   1.918       .  S
O1163      C1168   1.279       .  A
O1164     Ni1448   1.915       .  S
O1164      C1167   1.280       .  A
Ni1165     O1439   1.948       .  S
Ni1165     O1441   1.900       .  S
Ni1165    Ni1730   2.388   1_545  S
Ni1166     O1444   1.922       .  S
Ni1166     O1446   1.915       .  S
Ni1166    Ni1729   2.388       .  S
C1167      O1721   1.287       .  A
C1167      C1244   1.492       .  S
C1168      O1722   1.286       .  A
C1168      C1275   1.484       .  S
C1169      O1723   1.276       .  A
C1169      C1286   1.480       .  S
C1170      O1724   1.278       .  A
C1170      C1261   1.466       .  S
C1171      C1172   1.505       .  S
C1171      C1177   1.532       .  S
C1171      C1303   1.549   1_655  S
C1172      H1179   1.074       .  S
C1172      C1173   1.374       .  D
C1173      C1174   1.553       .  S
C1173      C1236   1.512       .  S
C1174      C1178   1.539       .  S
C1174      H1180   1.110       .  S
C1175      H1181   1.078       .  S
C1175      C1176   1.382       .  D
C1176      C1212   1.500       .  S
C1177      H1182   1.087   1_655  S
C1177      C1178   1.357       .  D
C1178      C1314   1.470       .  S
C1183      C1189   1.548   1_455  S
C1183      C1187   1.534   1_455  S
C1183      C1345   1.541       .  S
C1184      H1191   1.079       .  S
C1184      C1185   1.363       .  D
C1185      C1197   1.486       .  S
C1186      C1190   1.559       .  S
C1186      C1188   1.559       .  S
C1186      H1192   1.101       .  S
C1187      H1193   1.077       .  S
C1187      C1188   1.356       .  D
C1188      C1224   1.482       .  S
C1189      H1194   1.085       .  S
C1189      C1190   1.374       .  D
C1190      C1331   1.535   1_655  S
C1195      C1196   1.532       .  S
C1195      C1201   1.526       .  S
C1195      C1199   1.505       .  S
C1195      C1387   1.522       .  S
C1196      H1203   1.083       .  S
C1196      C1197   1.367       .  D
C1197      C1198   1.567       .  S
C1198      C1202   1.552       .  S
C1198      C1200   1.563       .  S
C1198      H1204   1.109       .  S
C1199      H1205   1.081       .  S
C1199      C1200   1.365       .  D
C1200      C1209   1.512       .  S
C1201      H1206   1.086       .  S
C1201      C1202   1.365       .  D
C1202      C1401   1.496       .  S
C1207      C1208   1.512   1_565  S
C1207      C1213   1.536       .  S
C1207      C1775   1.539       .  S
C1207      C1272   1.551       .  S
C1208      H1215   1.077       .  S
C1208      C1209   1.372       .  D
C1209      C1210   1.553   1_545  S
C1210      C1214   1.543       .  S
C1210      C1776   1.548       .  S
C1210      H1216   1.110   1_565  S
C1211      C1771   1.539       .  S
C1211      H1217   1.079       .  S
C1211      C1212   1.379       .  D
C1212      C1774   1.548       .  S
C1213      H1218   1.081       .  S
C1213      C1214   1.360       .  D
C1214      C1289   1.476       .  S
C1219      C1784   1.529   1_545  S
C1219      C1225   1.544       .  S
C1219      C1223   1.513       .  S
C1219      C1258   1.531       .  S
C1220      C1783   1.529       .  S
C1220      H1227   1.078       .  S
C1220      C1221   1.362       .  D
C1221      C1786   1.572       .  S
C1221      C1233   1.503       .  S
C1222      C1785   1.572   1_545  S
C1222      C1226   1.563       .  S
C1222      C1224   1.560       .  S
C1222      H1228   1.102       .  S
C1223      H1229   1.085       .  S
C1223      C1224   1.348       .  D
C1225      H1794   1.084       .  S
C1225      C1226   1.367       .  D
C1226      C1247   1.526       .  S
H1230      C1789   1.084       .  S
C1231      C1232   1.530       .  S
C1231      C1237   1.538       .  S
C1231      C1235   1.512       .  S
C1231      C1359   1.543       .  S
C1232      H1239   1.078       .  S
C1232      C1233   1.366       .  D
C1233      C1234   1.572       .  S
C1234      C1238   1.569       .  S
C1234      C1236   1.559       .  S
C1234      H1240   1.109       .  S
C1235      H1241   1.080       .  S
C1235      C1236   1.363       .  D
C1237      H1242   1.081       .  S
C1237      C1238   1.369       .  D
C1238      C1373   1.509       .  S
C1243      C1244   1.400       .  A
C1243      C1248   1.410       .  A
C1243      H1250   1.084       .  S
C1244      C1809   1.405       .  A
C1245      C1808   1.405       .  A
C1245      C1246   1.408       .  A
C1245      N1252   1.428       .  S
C1246      C1247   1.420       .  A
C1246      H1251   1.083       .  S
C1247      C1812   1.418       .  A
C1248      C1811   1.418       .  A
C1248      N1249   1.422       .  S
N1249      O1253   1.260       .  A
N1249      O1818   1.262       .  A
N1252      O1256   1.262       .  A
N1252      O1819   1.262       .  A
O1254      N1813   1.262       .  A
O1255      N1816   1.262       .  A
C1257      C1258   1.411       .  A
C1257      C1262   1.390       .  A
C1257      H1264   1.082       .  S
C1258      C1823   1.429       .  A
C1259      C1822   1.429       .  A
C1259      C1260   1.409       .  A
C1259      N1266   1.448       .  S
C1260      C1261   1.397       .  A
C1260      H1265   1.084       .  S
C1261      C1826   1.403       .  A
C1262      C1825   1.403       .  A
C1262      N1263   1.430       .  S
N1263      O1267   1.261       .  A
N1263      O1832   1.262       .  A
N1266      O1270   1.264       .  A
N1266      O1833   1.261       .  A
O1268      N1827   1.262       .  A
O1269      N1830   1.261       .  A
C1271      C1836   1.413       .  A
C1271      C1276   1.404       .  A
C1271      H1278   1.080       .  S
C1272      C1835   1.413       .  A
C1272      C1273   1.422       .  A
C1273      C1274   1.406       .  A
C1273      N1280   1.430       .  S
C1274      C1839   1.401       .  A
C1274      H1279   1.084   1_565  S
C1275      C1838   1.401       .  A
C1275      C1276   1.410       .  A
C1276      N1277   1.430       .  S
N1277      O1281   1.261       .  A
N1277      O1282   1.262       .  A
N1280      O1284   1.262   1_565  A
N1280      O1283   1.262       .  A
C1285      C1286   1.401       .  A
C1285      C1290   1.393       .  A
C1285      H1292   1.084       .  S
C1286      C1851   1.419       .  A
C1287      C1850   1.419   1_545  A
C1287      C1288   1.400       .  A
C1287      N1294   1.430       .  S
C1288      C1289   1.398   1_545  A
C1288      H1293   1.084       .  S
C1289      C1854   1.414       .  A
C1290      C1853   1.414       .  A
C1290      N1291   1.432       .  S
N1291      O1295   1.261       .  A
N1291      O1860   1.262       .  A
N1294      O1298   1.262       .  A
N1294      O1861   1.262       .  A
O1296      N1855   1.262       .  A
O1297      N1858   1.262       .  A
C1299      C1304   1.415       .  A
C1299      H1306   1.084       .  S
C1300      C1301   1.404   1_455  A
C1301      C1302   1.396       .  A
C1301      N1308   1.430       .  S
C1302      C1303   1.415   1_655  A
C1302      H1307   1.083       .  S
C1304      N1305   1.428       .  S
N1305      O1309   1.261       .  A
N1305      O1310   1.262       .  A
N1308      O1312   1.262       .  A
N1308      O1311   1.262       .  A
C1313      C1314   1.399   1_455  A
C1313      C1318   1.391       .  A
C1313      H1320   1.085       .  S
C1314      C1315   1.402       .  A
C1315      C1316   1.400       .  A
C1315      N1322   1.426       .  S
C1316      C1317   1.409   1_655  A
C1316      H1321   1.084       .  S
C1317      C1318   1.414       .  A
C1318      N1319   1.429       .  S
N1319      O1323   1.262       .  A
N1322      O1325   1.262       .  A
C1327      C1328   1.398   1_655  A
C1327      C1332   1.412       .  A
C1327      H1334   1.084       .  S
C1329      C1330   1.410       .  A
C1329      N1336   1.429       .  S
C1330      H1335   1.082       .  S
C1331      C1332   1.429   1_455  A
C1332      N1333   1.426       .  S
N1333      O1337   1.262       .  A
N1333      O1338   1.263       .  A
N1336      O1340   1.262       .  A
N1336      O1339   1.262       .  A
C1341      C1342   1.398   1_655  A
C1341      C1346   1.399       .  A
C1341      H1348   1.085       .  S
C1342      C1343   1.406       .  A
C1343      C1344   1.399       .  A
C1343      N1350   1.429       .  S
C1344      C1345   1.413       .  A
C1344      H1349   1.084       .  S
C1345      C1346   1.425   1_455  A
C1346      N1347   1.427       .  S
N1347      O1352   1.262       .  A
N1350      O1354   1.262       .  A
C1355      C1356   1.392       .  A
C1355      C1360   1.401       .  A
C1355      H1362   1.084       .  S
C1356      C1357   1.405       .  A
C1357      C1358   1.397       .  A
C1357      N1364   1.430       .  S
C1358      C1359   1.411       .  A
C1358      H1363   1.077       .  S
C1359      C1360   1.435       .  A
C1360      N1361   1.434       .  S
N1361      O1365   1.260       .  A
N1361      O1366   1.260       .  A
N1364      O1368   1.262       .  A
N1364      O1367   1.262       .  A
C1369      C1370   1.396       .  A
C1369      C1374   1.407       .  A
C1369      H1376   1.084       .  S
C1370      C1371   1.413       .  A
C1371      C1372   1.402       .  A
C1371      N1378   1.429       .  S
C1372      C1373   1.409       .  A
C1372      H1377   1.084       .  S
C1373      C1374   1.413       .  A
C1374      N1375   1.416       .  S
N1375      O1379   1.262       .  A
N1375      O1380   1.261       .  A
N1378      O1382   1.262       .  A
N1378      O1381   1.262       .  A
C1383      C1384   1.392       .  A
C1383      C1388   1.389       .  A
C1383      H1390   1.084       .  S
C1384      C1385   1.415       .  A
C1385      C1386   1.397       .  A
C1385      N1392   1.430       .  S
C1386      C1387   1.404       .  A
C1386      H1391   1.078       .  S
C1387      C1388   1.427       .  A
C1388      N1389   1.432       .  S
N1389      O1393   1.261       .  A
N1389      O1394   1.262       .  A
N1392      O1396   1.262       .  A
N1392      O1395   1.262       .  A
C1397      C1398   1.397       .  A
C1397      C1402   1.392       .  A
C1397      H1404   1.085       .  S
C1398      C1399   1.409       .  A
C1399      C1400   1.409       .  A
C1399      N1406   1.428       .  S
C1400      C1401   1.406       .  A
C1400      H1405   1.078       .  S
C1401      C1402   1.416       .  A
C1402      N1403   1.431       .  S
N1403      O1407   1.263       .  A
N1403      O1408   1.262       .  A
N1406      O1410   1.262       .  A
N1406      O1409   1.262       .  A
O1411     Ni1419   1.882   1_556  S
O1411      C1421   1.272       .  A
O1412      C1422   1.274       .  A
O1413     Ni1419   1.950   1_556  S
O1413      C1423   1.290       .  A
O1414      C1424   1.287       .  A
O1415     Ni1420   1.891       .  S
O1415      C1424   1.276       .  A
O1416      C1423   1.274       .  A
O1417     Ni1420   1.935       .  S
O1417      C1422   1.286       .  A
O1418      C1421   1.286       .  A
C1421      C1666   1.470       .  S
C1422      C1638   1.467       .  S
C1423      C1652   1.484       .  S
C1424      C1680   1.474       .  S
O1425      C1435   1.283   1_655  A
O1426     Ni1433   1.926       .  S
O1426      C1436   1.283   1_655  A
O1427      C1437   1.281   1_655  A
O1428     Ni1433   1.906       .  S
O1428      C1438   1.280   1_655  A
O1429     Ni1434   1.924       .  S
O1431     Ni1434   1.933       .  S
C1435      C1610   1.495       .  S
C1436      C1582   1.487       .  S
C1437      C1599   1.482       .  S
C1438      C1624   1.476       .  S
O1439      C2013   1.287       .  A
O1440     Ni1447   1.938   1_556  S
O1440      C2014   1.286   1_545  A
O1441      C2015   1.276   1_545  A
O1442     Ni1447   1.906   1_556  S
O1442      C2016   1.278       .  A
O1443     Ni1448   1.915   1_556  S
O1443      C1452   1.281       .  A
O1444      C1451   1.285       .  A
O1445     Ni1448   1.918   1_556  S
O1445      C1450   1.279       .  A
O1446      C1449   1.280       .  A
Ni1447    Ni2012   2.388   1_545  S
Ni1448    Ni2011   2.388       .  S
C1449      O2003   1.287       .  A
C1449      C1526   1.492       .  S
C1450      O2004   1.286       .  A
C1450      C1557   1.484       .  S
C1451      O2005   1.276       .  A
C1451      C1568   1.480       .  S
C1452      O2006   1.278       .  A
C1452      C1543   1.466       .  S
C1453      C1454   1.505       .  S
C1453      C1459   1.532       .  S
C1453      C1585   1.549   1_655  S
C1454      H1461   1.074       .  S
C1454      C1455   1.374       .  D
C1455      C1456   1.553       .  S
C1455      C1518   1.512       .  S
C1456      C1460   1.539       .  S
C1456      H1462   1.110       .  S
C1457      H1463   1.078       .  S
C1457      C1458   1.382       .  D
C1458      C1494   1.500       .  S
C1459      H1464   1.087   1_655  S
C1459      C1460   1.357       .  D
C1460      C1596   1.470       .  S
C1465      C1471   1.548   1_455  S
C1465      C1469   1.534   1_455  S
C1465      C1627   1.541       .  S
C1466      H1473   1.079       .  S
C1466      C1467   1.363       .  D
C1467      C1479   1.486       .  S
C1468      C1472   1.559       .  S
C1468      C1470   1.559       .  S
C1468      H1474   1.101       .  S
C1469      H1475   1.077       .  S
C1469      C1470   1.356       .  D
C1470      C1506   1.482       .  S
C1471      H1476   1.085       .  S
C1471      C1472   1.374       .  D
C1472      C1613   1.535   1_655  S
C1477      C1478   1.532       .  S
C1477      C1483   1.526       .  S
C1477      C1481   1.505       .  S
C1477      C1669   1.522       .  S
C1478      H1485   1.083       .  S
C1478      C1479   1.367       .  D
C1479      C1480   1.567       .  S
C1480      C1484   1.552       .  S
C1480      C1482   1.563       .  S
C1480      H1486   1.109       .  S
C1481      H1487   1.081       .  S
C1481      C1482   1.365       .  D
C1482      C1491   1.512       .  S
C1483      H1488   1.086       .  S
C1483      C1484   1.365       .  D
C1484      C1683   1.496       .  S
C1489      C1490   1.512   1_565  S
C1489      C1495   1.536       .  S
C1489      C2057   1.539       .  S
C1489      C1554   1.551       .  S
C1490      H1497   1.077       .  S
C1490      C1491   1.372       .  D
C1491      C1492   1.553   1_545  S
C1492      C1496   1.543       .  S
C1492      C2058   1.548       .  S
C1492      H1498   1.110   1_565  S
C1493      C2053   1.539       .  S
C1493      H1499   1.079       .  S
C1493      C1494   1.379       .  D
C1494      C2056   1.548       .  S
C1495      H1500   1.081       .  S
C1495      C1496   1.360       .  D
C1496      C1571   1.476       .  S
C1501      C2066   1.529   1_545  S
C1501      C1507   1.544       .  S
C1501      C1505   1.513       .  S
C1501      C1540   1.531       .  S
C1502      C2065   1.529       .  S
C1502      H1509   1.078       .  S
C1502      C1503   1.362       .  D
C1503      C2068   1.572       .  S
C1503      C1515   1.503       .  S
C1504      C2067   1.572   1_545  S
C1504      C1508   1.563       .  S
C1504      C1506   1.560       .  S
C1504      H1510   1.102       .  S
C1505      H1511   1.085       .  S
C1505      C1506   1.348       .  D
C1507      H2076   1.084       .  S
C1507      C1508   1.367       .  D
C1508      C1529   1.526       .  S
H1512      C2071   1.084       .  S
C1513      C1514   1.530       .  S
C1513      C1519   1.538       .  S
C1513      C1517   1.512       .  S
C1513      C1641   1.543       .  S
C1514      H1521   1.078       .  S
C1514      C1515   1.366       .  D
C1515      C1516   1.572       .  S
C1516      C1520   1.569       .  S
C1516      C1518   1.559       .  S
C1516      H1522   1.109       .  S
C1517      H1523   1.080       .  S
C1517      C1518   1.363       .  D
C1519      H1524   1.081       .  S
C1519      C1520   1.369       .  D
C1520      C1655   1.509       .  S
C1525      C1526   1.400       .  A
C1525      C1530   1.410       .  A
C1525      H1532   1.084       .  S
C1526      C2091   1.405       .  A
C1527      C2090   1.405       .  A
C1527      C1528   1.408       .  A
C1527      N1534   1.428       .  S
C1528      C1529   1.420       .  A
C1528      H1533   1.083       .  S
C1529      C2094   1.418       .  A
C1530      C2093   1.418       .  A
C1530      N1531   1.422       .  S
N1531      O1535   1.260       .  A
N1531      O2100   1.262       .  A
N1534      O1538   1.262       .  A
N1534      O2101   1.262       .  A
O1536      N2095   1.262       .  A
O1537      N2098   1.262       .  A
C1539      C1540   1.411       .  A
C1539      C1544   1.390       .  A
C1539      H1546   1.082       .  S
C1540      C2105   1.429       .  A
C1541      C2104   1.429       .  A
C1541      C1542   1.409       .  A
C1541      N1548   1.448       .  S
C1542      C1543   1.397       .  A
C1542      H1547   1.084       .  S
C1543      C2108   1.403       .  A
C1544      C2107   1.403       .  A
C1544      N1545   1.430       .  S
N1545      O1549   1.261       .  A
N1545      O2114   1.262       .  A
N1548      O1552   1.264       .  A
N1548      O2115   1.261       .  A
O1550      N2109   1.262       .  A
O1551      N2112   1.261       .  A
C1553      C2118   1.413       .  A
C1553      C1558   1.404       .  A
C1553      H1560   1.080       .  S
C1554      C2117   1.413       .  A
C1554      C1555   1.422       .  A
C1555      C1556   1.406       .  A
C1555      N1562   1.430       .  S
C1556      C2121   1.401       .  A
C1556      H1561   1.084   1_565  S
C1557      C2120   1.401       .  A
C1557      C1558   1.410       .  A
C1558      N1559   1.430       .  S
N1559      O1563   1.261       .  A
N1559      O1564   1.262       .  A
N1562      O1566   1.262   1_565  A
N1562      O1565   1.262       .  A
C1567      C1568   1.401       .  A
C1567      C1572   1.393       .  A
C1567      H1574   1.084       .  S
C1568      C2133   1.419       .  A
C1569      C2132   1.419   1_545  A
C1569      C1570   1.400       .  A
C1569      N1576   1.430       .  S
C1570      C1571   1.398   1_545  A
C1570      H1575   1.084       .  S
C1571      C2136   1.414       .  A
C1572      C2135   1.414       .  A
C1572      N1573   1.432       .  S
N1573      O1577   1.261       .  A
N1573      O2142   1.262       .  A
N1576      O1580   1.262       .  A
N1576      O2143   1.262       .  A
O1578      N2137   1.262       .  A
O1579      N2140   1.262       .  A
C1581      C1586   1.415       .  A
C1581      H1588   1.084       .  S
C1582      C1583   1.404   1_455  A
C1583      C1584   1.396       .  A
C1583      N1590   1.430       .  S
C1584      C1585   1.415   1_655  A
C1584      H1589   1.083       .  S
C1586      N1587   1.428       .  S
N1587      O1591   1.261       .  A
N1587      O1592   1.262       .  A
N1590      O1594   1.262       .  A
N1590      O1593   1.262       .  A
C1595      C1596   1.399   1_455  A
C1595      C1600   1.391       .  A
C1595      H1602   1.085       .  S
C1596      C1597   1.402       .  A
C1597      C1598   1.400       .  A
C1597      N1604   1.426       .  S
C1598      C1599   1.409   1_655  A
C1598      H1603   1.084       .  S
C1599      C1600   1.414       .  A
C1600      N1601   1.429       .  S
N1601      O1605   1.262       .  A
N1604      O1607   1.262       .  A
C1609      C1610   1.398   1_655  A
C1609      C1614   1.412       .  A
C1609      H1616   1.084       .  S
C1611      C1612   1.410       .  A
C1611      N1618   1.429       .  S
C1612      H1617   1.082       .  S
C1613      C1614   1.429   1_455  A
C1614      N1615   1.426       .  S
N1615      O1619   1.262       .  A
N1615      O1620   1.263       .  A
N1618      O1622   1.262       .  A
N1618      O1621   1.262       .  A
C1623      C1624   1.398   1_655  A
C1623      C1628   1.399       .  A
C1623      H1630   1.085       .  S
C1624      C1625   1.406       .  A
C1625      C1626   1.399       .  A
C1625      N1632   1.429       .  S
C1626      C1627   1.413       .  A
C1626      H1631   1.084       .  S
C1627      C1628   1.425   1_455  A
C1628      N1629   1.427       .  S
N1629      O1634   1.262       .  A
N1632      O1636   1.262       .  A
C1637      C1638   1.392       .  A
C1637      C1642   1.401       .  A
C1637      H1644   1.084       .  S
C1638      C1639   1.405       .  A
C1639      C1640   1.397       .  A
C1639      N1646   1.430       .  S
C1640      C1641   1.411       .  A
C1640      H1645   1.077       .  S
C1641      C1642   1.435       .  A
C1642      N1643   1.434       .  S
N1643      O1647   1.260       .  A
N1643      O1648   1.260       .  A
N1646      O1650   1.262       .  A
N1646      O1649   1.262       .  A
C1651      C1652   1.396       .  A
C1651      C1656   1.407       .  A
C1651      H1658   1.084       .  S
C1652      C1653   1.413       .  A
C1653      C1654   1.402       .  A
C1653      N1660   1.429       .  S
C1654      C1655   1.409       .  A
C1654      H1659   1.084       .  S
C1655      C1656   1.413       .  A
C1656      N1657   1.416       .  S
N1657      O1661   1.262       .  A
N1657      O1662   1.261       .  A
N1660      O1664   1.262       .  A
N1660      O1663   1.262       .  A
C1665      C1666   1.392       .  A
C1665      C1670   1.389       .  A
C1665      H1672   1.084       .  S
C1666      C1667   1.415       .  A
C1667      C1668   1.397       .  A
C1667      N1674   1.430       .  S
C1668      C1669   1.404       .  A
C1668      H1673   1.078       .  S
C1669      C1670   1.427       .  A
C1670      N1671   1.432       .  S
N1671      O1675   1.261       .  A
N1671      O1676   1.262       .  A
N1674      O1678   1.262       .  A
N1674      O1677   1.262       .  A
C1679      C1680   1.397       .  A
C1679      C1684   1.392       .  A
C1679      H1686   1.085       .  S
C1680      C1681   1.409       .  A
C1681      C1682   1.409       .  A
C1681      N1688   1.428       .  S
C1682      C1683   1.406       .  A
C1682      H1687   1.078       .  S
C1683      C1684   1.416       .  A
C1684      N1685   1.431       .  S
N1685      O1689   1.263       .  A
N1685      O1690   1.262       .  A
N1688      O1692   1.262       .  A
N1688      O1691   1.262       .  A
O1693     Ni1701   1.882       .  S
O1693      C1703   1.272       .  A
O1694     Ni1983   1.893       .  S
O1694      C1704   1.274       .  A
O1695     Ni1701   1.950       .  S
O1695      C1705   1.290       .  A
O1696     Ni1983   1.944       .  S
O1696      C1706   1.287       .  A
O1697     Ni1702   1.891       .  S
O1697      C1706   1.276       .  A
O1698     Ni1984   1.898       .  S
O1698      C1705   1.274       .  A
O1699     Ni1702   1.935       .  S
O1699      C1704   1.286       .  A
O1700     Ni1984   1.921       .  S
O1700      C1703   1.286       .  A
Ni1701     O1976   1.893       .  S
Ni1701     O1978   1.944       .  S
Ni1701    Ni1984   2.389       .  S
Ni1702     O1980   1.898   1_554  S
Ni1702     O1982   1.921   1_554  S
Ni1702    Ni1983   2.389       .  S
C1703      C1948   1.470       .  S
C1704      C1920   1.467       .  S
C1705      C1934   1.484       .  S
C1706      C1962   1.474       .  S
O1707     Ni1997   1.929       .  S
O1707      C1717   1.283   1_655  A
O1708     Ni1715   1.926   1_554  S
O1708      C1718   1.283   1_655  A
O1709     Ni1997   1.912       .  S
O1709      C1719   1.281   1_655  A
O1710     Ni1715   1.906   1_554  S
O1710      C1720   1.280   1_655  A
O1711     Ni1716   1.924   1_554  S
O1712     Ni1998   1.907       .  S
O1713     Ni1716   1.933   1_554  S
O1714     Ni1998   1.942       .  S
Ni1715     O1989   1.929       .  S
Ni1715     O1991   1.912       .  S
Ni1716     O1994   1.907       .  S
Ni1716     O1996   1.942       .  S
C1717      C1892   1.495       .  S
C1718      C1864   1.487       .  S
C1719      C1881   1.482       .  S
C1720      C1906   1.476       .  S
O1721     Ni2011   1.948       .  S
O1722     Ni1729   1.938       .  S
O1723     Ni2011   1.900       .  S
O1724     Ni1729   1.906       .  S
O1725     Ni1730   1.915       .  S
O1725      C1734   1.281   1_565  A
O1726     Ni2012   1.922       .  S
O1726      C1733   1.285       .  A
O1727     Ni1730   1.918       .  S
O1727      C1732   1.279       .  A
O1728     Ni2012   1.915       .  S
O1728      C1731   1.280   1_565  A
Ni1729     O2003   1.948       .  S
Ni1729     O2005   1.900       .  S
Ni1730     O2008   1.922       .  S
Ni1730     O2010   1.915       .  S
C1731      C1808   1.492       .  S
C1732      C1839   1.484       .  S
C1733      C1850   1.480       .  S
C1734      C1825   1.466       .  S
C1735      C1736   1.505       .  S
C1735      C1741   1.532       .  S
C1735      C1867   1.549   1_655  S
C1736      H1743   1.074       .  S
C1736      C1737   1.374       .  D
C1737      C1738   1.553       .  S
C1737      C1800   1.512       .  S
C1738      C1742   1.539       .  S
C1738      H1744   1.110       .  S
C1739      H1745   1.078       .  S
C1739      C1740   1.382       .  D
C1740      C1776   1.500       .  S
C1741      H1746   1.087   1_655  S
C1741      C1742   1.357       .  D
C1742      C1878   1.470       .  S
C1747      C1753   1.548   1_455  S
C1747      C1751   1.534   1_455  S
C1747      C1909   1.541       .  S
C1748      H1755   1.079       .  S
C1748      C1749   1.363       .  D
C1749      C1761   1.486       .  S
C1750      C1754   1.559       .  S
C1750      C1752   1.559       .  S
C1750      H1756   1.101       .  S
C1751      H1757   1.077       .  S
C1751      C1752   1.356       .  D
C1752      C1788   1.482       .  S
C1753      H1758   1.085       .  S
C1753      C1754   1.374       .  D
C1754      C1895   1.535   1_655  S
C1759      C1760   1.532       .  S
C1759      C1765   1.526       .  S
C1759      C1763   1.505       .  S
C1759      C1951   1.522       .  S
C1760      H1767   1.083       .  S
C1760      C1761   1.367       .  D
C1761      C1762   1.567       .  S
C1762      C1766   1.552       .  S
C1762      C1764   1.563       .  S
C1762      H1768   1.109       .  S
C1763      H1769   1.081       .  S
C1763      C1764   1.365       .  D
C1764      C1773   1.512       .  S
C1765      H1770   1.086       .  S
C1765      C1766   1.365       .  D
C1766      C1965   1.496       .  S
C1771      C1772   1.512       .  S
C1771      C1777   1.536       .  S
C1771      C1836   1.551       .  S
C1772      H1779   1.077       .  S
C1772      C1773   1.372       .  D
C1773      C1774   1.553       .  S
C1774      C1778   1.543       .  S
C1774      H1780   1.110       .  S
C1775      H1781   1.079       .  S
C1775      C1776   1.379       .  D
C1777      H1782   1.081       .  S
C1777      C1778   1.360       .  D
C1778      C1853   1.476       .  S
C1783      C1789   1.544       .  S
C1783      C1787   1.513       .  S
C1783      C1822   1.531       .  S
C1784      H1791   1.078       .  S
C1784      C1785   1.362       .  D
C1785      C1797   1.503       .  S
C1786      C1790   1.563       .  S
C1786      C1788   1.560       .  S
C1786      H1792   1.102       .  S
C1787      H1793   1.085       .  S
C1787      C1788   1.348       .  D
C1789      C1790   1.367       .  D
C1790      C1811   1.526       .  S
C1795      C1796   1.530       .  S
C1795      C1801   1.538       .  S
C1795      C1799   1.512       .  S
C1795      C1923   1.543       .  S
C1796      H1803   1.078       .  S
C1796      C1797   1.366       .  D
C1797      C1798   1.572       .  S
C1798      C1802   1.569       .  S
C1798      C1800   1.559       .  S
C1798      H1804   1.109       .  S
C1799      H1805   1.080       .  S
C1799      C1800   1.363       .  D
C1801      H1806   1.081       .  S
C1801      C1802   1.369       .  D
C1802      C1937   1.509       .  S
C1807      C1808   1.400       .  A
C1807      C1812   1.410       .  A
C1807      H1814   1.084   1_545  S
C1809      C1810   1.408       .  A
C1809      N1816   1.428       .  S
C1810      C1811   1.420       .  A
C1810      H1815   1.083       .  S
C1812      N1813   1.422   1_545  S
N1813      O1817   1.260       .  A
N1816      O1820   1.262       .  A
C1821      C1822   1.411       .  A
C1821      C1826   1.390       .  A
C1821      H1828   1.082       .  S
C1823      C1824   1.409       .  A
C1823      N1830   1.448       .  S
C1824      C1825   1.397       .  A
C1824      H1829   1.084   1_545  S
C1826      N1827   1.430       .  S
N1827      O1831   1.261       .  A
N1830      O1834   1.264   1_545  A
C1835      C1840   1.404       .  A
C1835      H1842   1.080       .  S
C1836      C1837   1.422       .  A
C1837      C1838   1.406       .  A
C1837      N1844   1.430       .  S
C1838      H1843   1.084       .  S
C1839      C1840   1.410       .  A
C1840      N1841   1.430       .  S
N1841      O1845   1.261       .  A
N1841      O1846   1.262       .  A
N1844      O1848   1.262       .  A
N1844      O1847   1.262       .  A
C1849      C1850   1.401       .  A
C1849      C1854   1.393       .  A
C1849      H1856   1.084       .  S
C1851      C1852   1.400       .  A
C1851      N1858   1.430       .  S
C1852      C1853   1.398       .  A
C1852      H1857   1.084       .  S
C1854      N1855   1.432       .  S
N1855      O1859   1.261       .  A
N1858      O1862   1.262       .  A
C1863      C1868   1.415       .  A
C1863      H1870   1.084       .  S
C1864      C1865   1.404   1_455  A
C1865      C1866   1.396       .  A
C1865      N1872   1.430       .  S
C1866      C1867   1.415   1_655  A
C1866      H1871   1.083       .  S
C1868      N1869   1.428       .  S
N1869      O1873   1.261       .  A
N1869      O1874   1.262       .  A
N1872      O1876   1.262       .  A
N1872      O1875   1.262       .  A
C1877      C1878   1.399   1_455  A
C1877      C1882   1.391       .  A
C1877      H1884   1.085       .  S
C1878      C1879   1.402       .  A
C1879      C1880   1.400       .  A
C1879      N1886   1.426       .  S
C1880      C1881   1.409   1_655  A
C1880      H1885   1.084       .  S
C1881      C1882   1.414       .  A
C1882      N1883   1.429       .  S
N1883      O1887   1.262       .  A
N1886      O1889   1.262       .  A
C1891      C1892   1.398   1_655  A
C1891      C1896   1.412       .  A
C1891      H1898   1.084       .  S
C1893      C1894   1.410       .  A
C1893      N1900   1.429       .  S
C1894      H1899   1.082       .  S
C1895      C1896   1.429   1_455  A
C1896      N1897   1.426       .  S
N1897      O1901   1.262       .  A
N1897      O1902   1.263       .  A
N1900      O1904   1.262       .  A
N1900      O1903   1.262       .  A
C1905      C1906   1.398   1_655  A
C1905      C1910   1.399       .  A
C1905      H1912   1.085       .  S
C1906      C1907   1.406       .  A
C1907      C1908   1.399       .  A
C1907      N1914   1.429       .  S
C1908      C1909   1.413       .  A
C1908      H1913   1.084       .  S
C1909      C1910   1.425   1_455  A
C1910      N1911   1.427       .  S
N1911      O1916   1.262       .  A
N1914      O1918   1.262       .  A
C1919      C1920   1.392       .  A
C1919      C1924   1.401       .  A
C1919      H1926   1.084       .  S
C1920      C1921   1.405       .  A
C1921      C1922   1.397       .  A
C1921      N1928   1.430       .  S
C1922      C1923   1.411       .  A
C1922      H1927   1.077       .  S
C1923      C1924   1.435       .  A
C1924      N1925   1.434       .  S
N1925      O1929   1.260       .  A
N1925      O1930   1.260       .  A
N1928      O1932   1.262       .  A
N1928      O1931   1.262       .  A
C1933      C1934   1.396       .  A
C1933      C1938   1.407       .  A
C1933      H1940   1.084       .  S
C1934      C1935   1.413       .  A
C1935      C1936   1.402       .  A
C1935      N1942   1.429       .  S
C1936      C1937   1.409       .  A
C1936      H1941   1.084       .  S
C1937      C1938   1.413       .  A
C1938      N1939   1.416       .  S
N1939      O1943   1.262       .  A
N1939      O1944   1.261       .  A
N1942      O1946   1.262       .  A
N1942      O1945   1.262       .  A
C1947      C1948   1.392       .  A
C1947      C1952   1.389       .  A
C1947      H1954   1.084       .  S
C1948      C1949   1.415       .  A
C1949      C1950   1.397       .  A
C1949      N1956   1.430       .  S
C1950      C1951   1.404       .  A
C1950      H1955   1.078       .  S
C1951      C1952   1.427       .  A
C1952      N1953   1.432       .  S
N1953      O1957   1.261       .  A
N1953      O1958   1.262       .  A
N1956      O1960   1.262       .  A
N1956      O1959   1.262       .  A
C1961      C1962   1.397       .  A
C1961      C1966   1.392       .  A
C1961      H1968   1.085       .  S
C1962      C1963   1.409       .  A
C1963      C1964   1.409       .  A
C1963      N1970   1.428       .  S
C1964      C1965   1.406       .  A
C1964      H1969   1.078       .  S
C1965      C1966   1.416       .  A
C1966      N1967   1.431       .  S
N1967      O1971   1.263       .  A
N1967      O1972   1.262       .  A
N1970      O1974   1.262       .  A
N1970      O1973   1.262       .  A
O1975     Ni1983   1.882   1_556  S
O1975      C1985   1.272       .  A
O1976      C1986   1.274       .  A
O1977     Ni1983   1.950   1_556  S
O1977      C1987   1.290       .  A
O1978      C1988   1.287       .  A
O1979     Ni1984   1.891       .  S
O1979      C1988   1.276       .  A
O1980      C1987   1.274       .  A
O1981     Ni1984   1.935       .  S
O1981      C1986   1.286       .  A
O1982      C1985   1.286       .  A
C1985      C2230   1.470       .  S
C1986      C2202   1.467       .  S
C1987      C2216   1.484       .  S
C1988      C2244   1.474       .  S
O1989      C1999   1.283   1_655  A
O1990     Ni1997   1.926       .  S
O1990      C2000   1.283   1_655  A
O1991      C2001   1.281   1_655  A
O1992     Ni1997   1.906       .  S
O1992      C2002   1.280   1_655  A
O1993     Ni1998   1.924       .  S
O1995     Ni1998   1.933       .  S
C1999      C2174   1.495       .  S
C2000      C2146   1.487       .  S
C2001      C2163   1.482       .  S
C2002      C2188   1.476       .  S
O2004     Ni2011   1.938   1_556  S
O2006     Ni2011   1.906   1_556  S
O2007     Ni2012   1.915   1_556  S
O2007      C2016   1.281   1_565  A
O2008      C2015   1.285       .  A
O2009     Ni2012   1.918   1_556  S
O2009      C2014   1.279       .  A
O2010      C2013   1.280   1_565  A
C2013      C2090   1.492       .  S
C2014      C2121   1.484       .  S
C2015      C2132   1.480       .  S
C2016      C2107   1.466       .  S
C2017      C2018   1.505       .  S
C2017      C2023   1.532       .  S
C2017      C2149   1.549   1_655  S
C2018      H2025   1.074       .  S
C2018      C2019   1.374       .  D
C2019      C2020   1.553       .  S
C2019      C2082   1.512       .  S
C2020      C2024   1.539       .  S
C2020      H2026   1.110       .  S
C2021      H2027   1.078       .  S
C2021      C2022   1.382       .  D
C2022      C2058   1.500       .  S
C2023      H2028   1.087   1_655  S
C2023      C2024   1.357       .  D
C2024      C2160   1.470       .  S
C2029      C2035   1.548   1_455  S
C2029      C2033   1.534   1_455  S
C2029      C2191   1.541       .  S
C2030      H2037   1.079       .  S
C2030      C2031   1.363       .  D
C2031      C2043   1.486       .  S
C2032      C2036   1.559       .  S
C2032      C2034   1.559       .  S
C2032      H2038   1.101       .  S
C2033      H2039   1.077       .  S
C2033      C2034   1.356       .  D
C2034      C2070   1.482       .  S
C2035      H2040   1.085       .  S
C2035      C2036   1.374       .  D
C2036      C2177   1.535   1_655  S
C2041      C2042   1.532       .  S
C2041      C2047   1.526       .  S
C2041      C2045   1.505       .  S
C2041      C2233   1.522       .  S
C2042      H2049   1.083       .  S
C2042      C2043   1.367       .  D
C2043      C2044   1.567       .  S
C2044      C2048   1.552       .  S
C2044      C2046   1.563       .  S
C2044      H2050   1.109       .  S
C2045      H2051   1.081       .  S
C2045      C2046   1.365       .  D
C2046      C2055   1.512       .  S
C2047      H2052   1.086       .  S
C2047      C2048   1.365       .  D
C2048      C2247   1.496       .  S
C2053      C2054   1.512       .  S
C2053      C2059   1.536       .  S
C2053      C2118   1.551       .  S
C2054      H2061   1.077       .  S
C2054      C2055   1.372       .  D
C2055      C2056   1.553       .  S
C2056      C2060   1.543       .  S
C2056      H2062   1.110       .  S
C2057      H2063   1.079       .  S
C2057      C2058   1.379       .  D
C2059      H2064   1.081       .  S
C2059      C2060   1.360       .  D
C2060      C2135   1.476       .  S
C2065      C2071   1.544       .  S
C2065      C2069   1.513       .  S
C2065      C2104   1.531       .  S
C2066      H2073   1.078       .  S
C2066      C2067   1.362       .  D
C2067      C2079   1.503       .  S
C2068      C2072   1.563       .  S
C2068      C2070   1.560       .  S
C2068      H2074   1.102       .  S
C2069      H2075   1.085       .  S
C2069      C2070   1.348       .  D
C2071      C2072   1.367       .  D
C2072      C2093   1.526       .  S
C2077      C2078   1.530       .  S
C2077      C2083   1.538       .  S
C2077      C2081   1.512       .  S
C2077      C2205   1.543       .  S
C2078      H2085   1.078       .  S
C2078      C2079   1.366       .  D
C2079      C2080   1.572       .  S
C2080      C2084   1.569       .  S
C2080      C2082   1.559       .  S
C2080      H2086   1.109       .  S
C2081      H2087   1.080       .  S
C2081      C2082   1.363       .  D
C2083      H2088   1.081       .  S
C2083      C2084   1.369       .  D
C2084      C2219   1.509       .  S
C2089      C2090   1.400       .  A
C2089      C2094   1.410       .  A
C2089      H2096   1.084   1_545  S
C2091      C2092   1.408       .  A
C2091      N2098   1.428       .  S
C2092      C2093   1.420       .  A
C2092      H2097   1.083       .  S
C2094      N2095   1.422   1_545  S
N2095      O2099   1.260       .  A
N2098      O2102   1.262       .  A
C2103      C2104   1.411       .  A
C2103      C2108   1.390       .  A
C2103      H2110   1.082       .  S
C2105      C2106   1.409       .  A
C2105      N2112   1.448       .  S
C2106      C2107   1.397       .  A
C2106      H2111   1.084   1_545  S
C2108      N2109   1.430       .  S
N2109      O2113   1.261       .  A
N2112      O2116   1.264   1_545  A
C2117      C2122   1.404       .  A
C2117      H2124   1.080       .  S
C2118      C2119   1.422       .  A
C2119      C2120   1.406       .  A
C2119      N2126   1.430       .  S
C2120      H2125   1.084       .  S
C2121      C2122   1.410       .  A
C2122      N2123   1.430       .  S
N2123      O2127   1.261       .  A
N2123      O2128   1.262       .  A
N2126      O2130   1.262       .  A
N2126      O2129   1.262       .  A
C2131      C2132   1.401       .  A
C2131      C2136   1.393       .  A
C2131      H2138   1.084       .  S
C2133      C2134   1.400       .  A
C2133      N2140   1.430       .  S
C2134      C2135   1.398       .  A
C2134      H2139   1.084       .  S
C2136      N2137   1.432       .  S
N2137      O2141   1.261       .  A
N2140      O2144   1.262       .  A
C2145      C2150   1.415       .  A
C2145      H2152   1.084       .  S
C2146      C2147   1.404   1_455  A
C2147      C2148   1.396       .  A
C2147      N2154   1.430       .  S
C2148      C2149   1.415   1_655  A
C2148      H2153   1.083       .  S
C2150      N2151   1.428       .  S
N2151      O2155   1.261       .  A
N2151      O2156   1.262       .  A
N2154      O2158   1.262       .  A
N2154      O2157   1.262       .  A
C2159      C2160   1.399   1_455  A
C2159      C2164   1.391       .  A
C2159      H2166   1.085       .  S
C2160      C2161   1.402       .  A
C2161      C2162   1.400       .  A
C2161      N2168   1.426       .  S
C2162      C2163   1.409   1_655  A
C2162      H2167   1.084       .  S
C2163      C2164   1.414       .  A
C2164      N2165   1.429       .  S
N2165      O2169   1.262       .  A
N2168      O2171   1.262       .  A
C2173      C2174   1.398   1_655  A
C2173      C2178   1.412       .  A
C2173      H2180   1.084       .  S
C2175      C2176   1.410       .  A
C2175      N2182   1.429       .  S
C2176      H2181   1.082       .  S
C2177      C2178   1.429   1_455  A
C2178      N2179   1.426       .  S
N2179      O2183   1.262       .  A
N2179      O2184   1.263       .  A
N2182      O2186   1.262       .  A
N2182      O2185   1.262       .  A
C2187      C2188   1.398   1_655  A
C2187      C2192   1.399       .  A
C2187      H2194   1.085       .  S
C2188      C2189   1.406       .  A
C2189      C2190   1.399       .  A
C2189      N2196   1.429       .  S
C2190      C2191   1.413       .  A
C2190      H2195   1.084       .  S
C2191      C2192   1.425   1_455  A
C2192      N2193   1.427       .  S
N2193      O2198   1.262       .  A
N2196      O2200   1.262       .  A
C2201      C2202   1.392       .  A
C2201      C2206   1.401       .  A
C2201      H2208   1.084       .  S
C2202      C2203   1.405       .  A
C2203      C2204   1.397       .  A
C2203      N2210   1.430       .  S
C2204      C2205   1.411       .  A
C2204      H2209   1.077       .  S
C2205      C2206   1.435       .  A
C2206      N2207   1.434       .  S
N2207      O2211   1.260       .  A
N2207      O2212   1.260       .  A
N2210      O2214   1.262       .  A
N2210      O2213   1.262       .  A
C2215      C2216   1.396       .  A
C2215      C2220   1.407       .  A
C2215      H2222   1.084       .  S
C2216      C2217   1.413       .  A
C2217      C2218   1.402       .  A
C2217      N2224   1.429       .  S
C2218      C2219   1.409       .  A
C2218      H2223   1.084       .  S
C2219      C2220   1.413       .  A
C2220      N2221   1.416       .  S
N2221      O2225   1.262       .  A
N2221      O2226   1.261       .  A
N2224      O2228   1.262       .  A
N2224      O2227   1.262       .  A
C2229      C2230   1.392       .  A
C2229      C2234   1.389       .  A
C2229      H2236   1.084       .  S
C2230      C2231   1.415       .  A
C2231      C2232   1.397       .  A
C2231      N2238   1.430       .  S
C2232      C2233   1.404       .  A
C2232      H2237   1.078       .  S
C2233      C2234   1.427       .  A
C2234      N2235   1.432       .  S
N2235      O2239   1.261       .  A
N2235      O2240   1.262       .  A
N2238      O2242   1.262       .  A
N2238      O2241   1.262       .  A
C2243      C2244   1.397       .  A
C2243      C2248   1.392       .  A
C2243      H2250   1.085       .  S
C2244      C2245   1.409       .  A
C2245      C2246   1.409       .  A
C2245      N2252   1.428       .  S
C2246      C2247   1.406       .  A
C2246      H2251   1.078       .  S
C2247      C2248   1.416       .  A
C2248      N2249   1.431       .  S
N2249      O2253   1.263       .  A
N2249      O2254   1.262       .  A
N2252      O2256   1.262       .  A
N2252      O2255   1.262       .  A
