geometry optimzed in LAMMPS
_audit_creation_date              2020-11-30 
_audit_creation_method            'lammps2cif' 
_symmetry_space_group_name_H-M    'P1' 
_symmetry_Int_Tables_number       1 
_symmetry_cell_setting            triclinic 
loop_ 
_symmetry_equiv_pos_as_xyz 
  x,y,z 
_cell_length_a                    34.95092443 
_cell_length_b                    26.54772996101752 
_cell_length_c                    47.382022381964866 
_cell_angle_alpha                 89.93348964597048 
_cell_angle_beta                  90.17341685992793 
_cell_angle_gamma                 90.57387336767982 
loop_ 
_atom_site_label 
_atom_site_type_symbol 
_atom_site_fract_x 
_atom_site_fract_y 
_atom_site_fract_z 
_atom_site_charge 
C1          C  0.04475911  0.00236101  0.13795341     0.31400
C2          C  0.46541842  0.49938732  0.13812280     0.31400
C3          C  0.02556786  0.49941576  0.16723137    -0.04800
C4          C  0.02430972  0.04727691  0.12445866    -0.05600
C5          C  0.02549946  0.45645699  0.12357357    -0.05500
C6          C  0.48534622  0.49989476  0.16738227    -0.04900
C7          C  0.48436616  0.04631122  0.12474467    -0.05600
C8          C  0.48558806  0.45608084  0.12311730    -0.05500
C9          C  0.47437318  0.50213545  0.19526788    -0.30900
N10         N  0.50609988  0.99909687  0.21161390     0.15600
C11         C  0.03738037  0.99663362  0.19494373    -0.30900
H12         H  0.06646819  0.99378606  0.20261885     0.17500
C13         C  0.47260973  0.08924817  0.11099504    -0.29900
N14         N  0.00395557  0.11455881  0.10162817     0.14300
C15         C  0.03569528  0.08987378  0.11012235    -0.29900
C16         C  0.47383664  0.41534791  0.10738058    -0.30200
N17         N  0.50525451  0.39000999  0.09906289     0.14800
H18         H  0.44463262  0.40558927  0.10166626     0.17500
C19         C  0.03683772  0.41356047  0.10954614    -0.30200
H20         H  0.06591068  0.40176061  0.10572549     0.17500
H21         H  0.06476312  0.10021804  0.10451138     0.17500
H22         H  0.44554783  0.50547617  0.20327338     0.17500
H23         H  0.44343485  0.10035319  0.10679793     0.17500
C24         C  0.29457720  0.99885335  0.13757154     0.31400
C25         C  0.21523879  0.50020590  0.13736889     0.31400
C26         C  0.27501446  0.49921183  0.16675260    -0.04800
C27         C  0.27561653  0.04549918  0.12411008    -0.05600
C28         C  0.27405619  0.45470648  0.12286533    -0.05500
C29         C  0.23485116  0.49776827  0.16666551    -0.04900
C30         C  0.23569147  0.04498134  0.12360793    -0.05600
C31         C  0.23408478  0.45484298  0.12284490    -0.05500
C32         C  0.22349494  0.49524576  0.19445565    -0.30900
N33         N  0.25500308  0.99897113  0.21106957     0.15600
C34         C  0.28646435  0.00228658  0.19453751    -0.30900
H35         H  0.31545400  0.00638767  0.20233549     0.17500
C36         C  0.22387489  0.08605259  0.10855441    -0.29900
N37         N  0.25521454  0.11250107  0.10048156     0.14300
C38         C  0.28689815  0.08933453  0.11057223    -0.29900
C39         C  0.22241611  0.41243546  0.10824503    -0.30200
N40         N  0.25387618  0.38825418  0.09885048     0.14800
H41         H  0.19328483  0.40054124  0.10392745     0.17500
C42         C  0.28554234  0.41311354  0.10802170    -0.30200
H43         H  0.31466279  0.40321163  0.10290233     0.17500
H44         H  0.31594824  0.10179078  0.10654885     0.17500
H45         H  0.19447345  0.49213951  0.20221890     0.17500
H46         H  0.19473522  0.09488097  0.10272971     0.17500
C47         C  0.46522507  0.49888938  0.40421967     0.31400
C48         C  0.04443967  0.00015065  0.40441884     0.31400
C49         C  0.48506431  0.49934438  0.37544948    -0.04800
C50         C  0.48464055  0.04349562  0.41974193    -0.05600
C51         C  0.48474958  0.45460514  0.41957864    -0.05500
C52         C  0.02479948  0.50008530  0.37561221    -0.04900
C53         C  0.02476809  0.04450580  0.41971300    -0.05600
C54         C  0.02487599  0.45491777  0.41947184    -0.05500
C55         C  0.03674243  0.00003887  0.34801541    -0.30900
N56         N  0.50527291  0.99916171  0.33129219     0.15600
C57         C  0.47352480  0.49873545  0.34765657    -0.30900
H58         H  0.44438534  0.49800094  0.33985744     0.17500
C59         C  0.03594209  0.08210853  0.43826235    -0.29900
N60         N  0.00422093  0.10395453  0.44894457     0.14300
C61         C  0.47292081  0.07940318  0.43880856    -0.29900
C62         C  0.03638993  0.41689246  0.43744617    -0.30200
N63         N  0.50484687  0.39374442  0.44810059     0.14800
H64         H  0.06549289  0.40825454  0.44350885     0.17500
C65         C  0.47335421  0.41766771  0.43837005    -0.30200
H66         H  0.44436001  0.40935134  0.44496633     0.17500
H67         H  0.44380668  0.08665932  0.44524951     0.17500
H68         H  0.06599379  0.00045826  0.34057336     0.17500
H69         H  0.06491706  0.09136711  0.44465848     0.17500
C70         C  0.21531318  0.49916683  0.40417940     0.31400
C71         C  0.29453782  0.99910218  0.40378948     0.31400
C72         C  0.23478434  0.50073596  0.37528429    -0.04800
C73         C  0.23540033  0.04270856  0.42012184    -0.05600
C74         C  0.23459001  0.45387817  0.41878052    -0.05500
C75         C  0.27452170  0.50075729  0.37513699    -0.04900
C76         C  0.27551580  0.04317005  0.41976546    -0.05600
C77         C  0.27471765  0.45352823  0.41839891    -0.05500
C78         C  0.28605993  0.00228402  0.34745805    -0.30900
N79         N  0.25435663  0.00310830  0.33095282     0.15600
C80         C  0.22286032  0.50209446  0.34760740    -0.30900
H81         H  0.19359355  0.50195263  0.34006381     0.17500
C82         C  0.28729349  0.08142407  0.43770846    -0.29900
N83         N  0.25583870  0.10376176  0.44851866     0.14300
C84         C  0.22425844  0.07919798  0.43893383    -0.29900
C85         C  0.28602916  0.41567288  0.43658591    -0.30200
N86         N  0.25442600  0.39306849  0.44750431     0.14800
H87         H  0.31509380  0.40694906  0.44272005     0.17500
C88         C  0.22306600  0.41737752  0.43784071    -0.30200
H89         H  0.19408886  0.40978607  0.44472853     0.17500
H90         H  0.19529708  0.08700460  0.44555411     0.17500
H91         H  0.31520621  0.00218335  0.33980448     0.17500
H92         H  0.31644068  0.09088293  0.44355306     0.17500
O93         O  0.41809858  0.29225939  0.02196782    -0.77100
C94         C  0.50541075  0.35034053  0.07873552     0.83900
O95         O  0.02602743  0.31487219  0.46336681    -0.78300
O96         O  0.09241125  0.25028483  0.04485180    -0.79700
O97         O  0.47950846  0.14951170  0.06053248    -0.79500
O98         O  0.41601461  0.20811832  0.02162859    -0.78200
Zn99       Zn  0.47294052  0.31109484  0.02303448     1.55700
O100        O  0.02802121  0.18887100  0.08204398    -0.79600
Cd101      Cd  0.47181839  0.18904239  0.02360029     1.59700
Cd102      Cd  0.03461876  0.24965795  0.48710590     1.59600
O103        O  0.48200084  0.14146548  0.49007832    -0.79600
O104        O  0.50386944  0.25116197  0.02252382    -1.90100
Cd105      Cd  0.03691326  0.25144022  0.05690705     1.59900
O106        O  0.02487812  0.18351468  0.46419718    -0.79500
O107        O  0.02965240  0.31517528  0.08111852    -0.78200
C108        C  0.50474805  0.35285285  0.46782269     0.84400
C109        C  0.39991638  0.25068209  0.02139014     0.84000
O110        O  0.48179150  0.35194686  0.05825411    -0.77100
C111        C  0.00353181  0.15317340  0.08068407     0.84800
O112        O  0.48325744  0.35546892  0.48939509    -0.77200
C113        C  0.00374835  0.14480709  0.46864879     0.85000
C114        C  0.10888885  0.24930407  0.02105109     0.85300
O115        O  0.09121422  0.24907645  0.49760033    -0.79600
O116        O  0.16787389  0.28999764  0.02127699    -0.77100
C117        C  0.25394208  0.34862809  0.07854383     0.83900
O118        O  0.27596846  0.31456318  0.46306139    -0.78300
O119        O  0.34229010  0.25170501  0.04500996    -0.79700
O120        O  0.23093300  0.14776293  0.05945186    -0.79500
O121        O  0.16609383  0.20586367  0.02120665    -0.78200
Zn122      Zn  0.22247426  0.30982977  0.02244599     1.55700
O123        O  0.27898060  0.18737982  0.08133969    -0.79600
Cd124      Cd  0.22231867  0.18796063  0.02292985     1.59700
Cd125      Cd  0.28521125  0.24965464  0.48689062     1.59600
O126        O  0.23321540  0.14141180  0.48931618    -0.79600
O127        O  0.25394023  0.25039045  0.02205792    -1.90100
Cd128      Cd  0.28669032  0.25062075  0.05658860     1.59900
O129        O  0.27681277  0.18318017  0.46393869    -0.79500
O130        O  0.27817310  0.31349660  0.08101947    -0.78200
C131        C  0.25430927  0.35224221  0.46731538     0.84400
C132        C  0.14981304  0.24833131  0.02088611     0.84000
O133        O  0.23064920  0.35053038  0.05786516    -0.77100
C134        C  0.25491490  0.15127948  0.07964225     0.84800
O135        O  0.23255500  0.35461049  0.48877365    -0.77200
C136        C  0.25547898  0.14459022  0.46819121     0.85000
C137        C  0.35903126  0.25152551  0.02131867     0.85300
O138        O  0.34163156  0.25093336  0.49776654    -0.79600
C139        C  0.33889822  0.99899599  0.40113886    -0.04000
C140        C  0.36000971  0.04427292  0.39649105    -0.01100
C141        C  0.40058603  0.04409611  0.39653498     0.03900
C142        C  0.42085849  0.49874278  0.40152551    -0.04000
C143        C  0.39977825  0.45343533  0.39680558    -0.01100
C144        C  0.35919231  0.45367155  0.39630920     0.03900
C145        C  0.34054493  0.08988434  0.38791811     0.38500
C146        C  0.41931175  0.40771843  0.38866437     0.38500
C147        C  0.33897956  0.40874801  0.38676226     0.36900
C148        C  0.42094172  0.08936452  0.38770885     0.36900
N149        N  0.32312401  0.37293898  0.37885564    -0.37900
N150        N  0.43695844  0.12541416  0.38036364    -0.37900
N151        N  0.43452752  0.37113688  0.38192123    -0.37300
N152        N  0.32535749  0.12636776  0.38086233    -0.37300
C153        C  0.08882896  0.50028341  0.40197065    -0.04000
C154        C  0.11004666  0.04566438  0.39786719    -0.01100
C155        C  0.15064527  0.04532398  0.39773310     0.03900
C156        C  0.17087915  0.49962999  0.40184912    -0.04000
C157        C  0.14956685  0.45465829  0.39671134    -0.01100
C158        C  0.10899643  0.45507354  0.39654755     0.03900
C159        C  0.09069273  0.09164888  0.38978992     0.38500
C160        C  0.16880284  0.40912106  0.38790017     0.38500
C161        C  0.08854848  0.41036689  0.38692993     0.36900
C162        C  0.17095095  0.09105193  0.38960980     0.36900
N163        N  0.07247543  0.37477436  0.37895608    -0.37900
N164        N  0.18676781  0.12766656  0.38292919    -0.37900
N165        N  0.18372243  0.37265014  0.38063444    -0.37300
N166        N  0.07563046  0.12846195  0.38313156    -0.37300
C167        C  0.25497251  0.00007917  0.24134101    -0.04000
C168        C  0.26688066  0.04397213  0.25574900    -0.01100
C169        C  0.26671204  0.04500706  0.28546329     0.03900
C170        C  0.25428990  0.00235226  0.30071016    -0.04000
C171        C  0.24245174  0.45850813  0.28632750    -0.00700
C172        C  0.24293284  0.45728243  0.25664792     0.03900
C173        C  0.27833195  0.08826276  0.23987026     0.38500
C174        C  0.23078222  0.41440874  0.30227666     0.38500
C175        C  0.23215298  0.41166524  0.24175548     0.36900
C176        C  0.27859132  0.09003782  0.30049097     0.36900
N177        N  0.22362240  0.37516089  0.22987961    -0.37900
N178        N  0.28809957  0.12599506  0.31250354    -0.37900
N179        N  0.22149798  0.37927128  0.31511046    -0.37300
N180        N  0.28743033  0.12360906  0.22713797    -0.37300
C181        C  0.33899457  0.99431417  0.13628011    -0.04000
C182        C  0.35980283  0.00813001  0.11166470    -0.01100
C183        C  0.40042848  0.00776916  0.11174940     0.03900
C184        C  0.42094216  0.49433149  0.13657435    -0.04000
C185        C  0.40002859  0.46383037  0.15593290    -0.01100
C186        C  0.35938842  0.46359728  0.15567386     0.03900
C187        C  0.33999603  0.01448037  0.08494788     0.38500
C188        C  0.41953747  0.42614200  0.17269297     0.38500
C189        C  0.33923444  0.42530057  0.17190109     0.36900
C190        C  0.42041807  0.01284921  0.08505658     0.36900
N191        N  0.32344765  0.39425018  0.18464347    -0.37900
N192        N  0.43623410  0.01626914  0.06369733    -0.37900
N193        N  0.43462236  0.39552209  0.18596749    -0.37300
N194        N  0.32451003  0.01898963  0.06347509    -0.37300
C195        C  0.17088604  0.50548933  0.13602555    -0.04000
C196        C  0.15102246  0.03622273  0.15560514    -0.01100
C197        C  0.11041729  0.03689335  0.15578187     0.03900
C198        C  0.08914447  0.50721590  0.13624121    -0.04000
C199        C  0.10922787  0.49451185  0.11123917    -0.01100
C200        C  0.14982464  0.49339590  0.11115429     0.03900
C201        C  0.17174348  0.07376780  0.17204234     0.38500
C202        C  0.08893096  0.49127436  0.08450445     0.38500
C203        C  0.16934288  0.48862447  0.08430468     0.36900
C204        C  0.09132207  0.07480713  0.17249692     0.36900
N205        N  0.18460759  0.48542790  0.06274001    -0.37900
N206        N  0.07649197  0.10575045  0.18557566    -0.37900
N207        N  0.07293748  0.48934754  0.06309599    -0.37300
N208        N  0.18807500  0.10419511  0.18491745    -0.37300
C209        C  0.50565911  0.99907348  0.30109522    -0.04000
C210        C  0.00724020  0.04499642  0.28629434    -0.01100
C211        C  0.00751447  0.04500363  0.25659874     0.03900
C212        C  0.50649238  0.99905669  0.24182627    -0.04000
C213        C  0.50572291  0.45308187  0.25664467    -0.01100
C214        C  0.50512600  0.45309616  0.28635411     0.03900
C215        C  0.00873688  0.09191315  0.30184045     0.38500
C216        C  0.50583381  0.40611582  0.24113955     0.38500
C217        C  0.50422233  0.40617546  0.30197085     0.36900
C218        C  0.00904614  0.09198671  0.24108422     0.36900
N219        N  0.50353107  0.36881206  0.31457454    -0.37900
N220        N  0.01027380  0.12956738  0.22870846    -0.37900
N221        N  0.50613571  0.36865696  0.22867837    -0.37300
N222        N  0.01003824  0.12929373  0.31436290    -0.37300
C223        C  0.04475911  0.00236103  0.63795342     0.31400
C224        C  0.46541838  0.49938744  0.63812282     0.31400
C225        C  0.02556789  0.49941596  0.66723143    -0.04800
C226        C  0.02430955  0.04727702  0.62445877    -0.05600
C227        C  0.02549944  0.45645698  0.62357354    -0.05500
C228        C  0.48534607  0.49989481  0.66738222    -0.04900
C229        C  0.48436606  0.04631139  0.62474481    -0.05600
C230        C  0.48558833  0.45608113  0.62311738    -0.05500
C231        C  0.47437299  0.50213560  0.69526789    -0.30900
N232        N  0.50609966  0.99909686  0.71161391     0.15600
C233        C  0.03738074  0.99663376  0.69494380    -0.30900
H234        H  0.06646528  0.99378609  0.70261814     0.17500
C235        C  0.47260982  0.08924818  0.61099499    -0.29900
N236        N  0.00395517  0.11455889  0.60162816     0.14300
C237        C  0.03569515  0.08987369  0.61012227    -0.29900
C238        C  0.47383608  0.41534811  0.60738048    -0.30200
N239        N  0.50525505  0.39001016  0.59906297     0.14800
H240        H  0.44463705  0.40559103  0.60166726     0.17500
C241        C  0.03683735  0.41356057  0.60954616    -0.30200
H242        H  0.06591168  0.40175982  0.60572548     0.17500
H243        H  0.06476255  0.10021764  0.60451136     0.17500
H244        H  0.44554771  0.50547673  0.70327326     0.17500
H245        H  0.44343443  0.10035336  0.60679807     0.17500
C246        C  0.29457719  0.99885339  0.63757155     0.31400
C247        C  0.21523870  0.50020601  0.63736891     0.31400
C248        C  0.27501470  0.49921172  0.66675258    -0.04800
C249        C  0.27561635  0.04549913  0.62411014    -0.05600
C250        C  0.27405648  0.45470622  0.62286525    -0.05500
C251        C  0.23485142  0.49776848  0.66666543    -0.04900
C252        C  0.23569142  0.04498118  0.62360785    -0.05600
C253        C  0.23408485  0.45484303  0.62284488    -0.05500
C254        C  0.22349460  0.49524564  0.69445574    -0.30900
N255        N  0.25500302  0.99897106  0.71106961     0.15600
C256        C  0.28646393  0.00228671  0.69453744    -0.30900
H257        H  0.31545685  0.00638817  0.70233618     0.17500
C258        C  0.22387445  0.08605272  0.60855434    -0.29900
N259        N  0.25521428  0.11250096  0.60048143     0.14300
C260        C  0.28689821  0.08933478  0.61057214    -0.29900
C261        C  0.22241623  0.41243548  0.60824507    -0.30200
N262        N  0.25387675  0.38825397  0.59885051     0.14800
H263        H  0.19328567  0.40054132  0.60392758     0.17500
C264        C  0.28554185  0.41311359  0.60802171    -0.30200
H265        H  0.31466735  0.40320959  0.60290155     0.17500
H266        H  0.31594599  0.10178988  0.60654878     0.17500
H267        H  0.19447776  0.49214043  0.70221783     0.17500
H268        H  0.19473625  0.09488045  0.60272984     0.17500
C269        C  0.46522506  0.49888932  0.90421969     0.31400
C270        C  0.04443968  0.00015056  0.90441886     0.31400
C271        C  0.48506424  0.49934425  0.87544953    -0.04800
C272        C  0.48464026  0.04349571  0.91974193    -0.05600
C273        C  0.48474963  0.45460501  0.91957861    -0.05500
C274        C  0.02479994  0.50008537  0.87561213    -0.04900
C275        C  0.02476840  0.04450582  0.91971312    -0.05600
C276        C  0.02487633  0.45491763  0.91947192    -0.05500
C277        C  0.03674234  0.00003878  0.84801537    -0.30900
N278        N  0.50527304  0.99916164  0.83129220     0.15600
C279        C  0.47352467  0.49873526  0.84765659    -0.30900
H280        H  0.44438518  0.49800061  0.83985748     0.17500
C281        C  0.03594177  0.08210827  0.93826242    -0.29900
N282        N  0.00422134  0.10395453  0.94894461     0.14300
C283        C  0.47292106  0.07940300  0.93880846    -0.29900
C284        C  0.03638966  0.41689269  0.93744610    -0.30200
N285        N  0.50484733  0.39374442  0.94810063     0.14800
H286        H  0.06549666  0.40825358  0.94350956     0.17500
C287        C  0.47335411  0.41766781  0.93837009    -0.30200
H288        H  0.44436061  0.40935136  0.94496620     0.17500
H289        H  0.44380327  0.08666068  0.94524982     0.17500
H290        H  0.06599329  0.00045767  0.84057335     0.17500
H291        H  0.06492058  0.09136844  0.94465923     0.17500
C292        C  0.21531326  0.49916684  0.90417939     0.31400
C293        C  0.29453782  0.99910199  0.90378953     0.31400
C294        C  0.23478468  0.50073582  0.87528441    -0.04800
C295        C  0.23540040  0.04270845  0.92012182    -0.05600
C296        C  0.23459005  0.45387814  0.91878049    -0.05500
C297        C  0.27452175  0.50075717  0.87513707    -0.04900
C298        C  0.27551594  0.04317000  0.91976548    -0.05600
C299        C  0.27471759  0.45352818  0.91839893    -0.05500
C300        C  0.28605937  0.00228385  0.84745808    -0.30900
N301        N  0.25435718  0.00310809  0.83095282     0.15600
C302        C  0.22285994  0.50209431  0.84760738    -0.30900
H303        H  0.19359765  0.50195215  0.84006506     0.17500
C304        C  0.28729359  0.08142401  0.93770853    -0.29900
N305        N  0.25583874  0.10376162  0.94851871     0.14300
C306        C  0.22425862  0.07919775  0.93893377    -0.29900
C307        C  0.28602931  0.41567269  0.93658590    -0.30200
N308        N  0.25442598  0.39306818  0.94750422     0.14800
H309        H  0.31509297  0.40694860  0.94271962     0.17500
C310        C  0.22306622  0.41737736  0.93784063    -0.30200
H311        H  0.19408875  0.40978558  0.94472832     0.17500
H312        H  0.19529652  0.08700442  0.94555430     0.17500
H313        H  0.31521167  0.00218313  0.83980281     0.17500
H314        H  0.31644108  0.09088300  0.94355343     0.17500
O315        O  0.41809852  0.29225927  0.52196777    -0.77100
C316        C  0.50541051  0.35034078  0.57873548     0.83900
O317        O  0.02602745  0.31487221  0.96336688    -0.78300
O318        O  0.09241137  0.25028508  0.54485192    -0.79700
O319        O  0.47950829  0.14951182  0.56053237    -0.79500
O320        O  0.41601458  0.20811824  0.52162845    -0.78200
Zn321      Zn  0.47294043  0.31109496  0.52303447     1.55700
O322        O  0.02802130  0.18887105  0.58204390    -0.79600
Cd323      Cd  0.47181834  0.18904253  0.52360020     1.59700
Cd324      Cd  0.03461883  0.24965784  0.98710584     1.59600
O325        O  0.48200077  0.14146543  0.99007825    -0.79600
O326        O  0.50386929  0.25116218  0.52252398    -1.90100
Cd327      Cd  0.03691335  0.25144035  0.55690712     1.59900
O328        O  0.02487826  0.18351455  0.96419723    -0.79500
O329        O  0.02965223  0.31517556  0.58111853    -0.78200
C330        C  0.50474809  0.35285302  0.96782271     0.84400
C331        C  0.39991633  0.25068196  0.52139003     0.84000
O332        O  0.48179143  0.35194697  0.55825414    -0.77100
C333        C  0.00353191  0.15317362  0.58068401     0.84800
O334        O  0.48325754  0.35546894  0.98939509    -0.77200
C335        C  0.00374829  0.14480708  0.96864878     0.85000
C336        C  0.10888878  0.24930422  0.52105113     0.85300
O337        O  0.09121443  0.24907630  0.99760027    -0.79600
O338        O  0.16787380  0.28999784  0.52127712    -0.77100
C339        C  0.25394205  0.34862815  0.57854383     0.83900
O340        O  0.27596858  0.31456292  0.96306127    -0.78300
O341        O  0.34229017  0.25170483  0.54500986    -0.79700
O342        O  0.23093299  0.14776302  0.55945179    -0.79500
O343        O  0.16609391  0.20586393  0.52120661    -0.78200
Zn344      Zn  0.22247423  0.30982987  0.52244604     1.55700
O345        O  0.27898055  0.18737990  0.58133961    -0.79600
Cd346      Cd  0.22231874  0.18796076  0.52292986     1.59700
Cd347      Cd  0.28521133  0.24965450  0.98689067     1.59600
O348        O  0.23321530  0.14141166  0.98931615    -0.79600
O349        O  0.25394029  0.25039078  0.52205786    -1.90100
Cd350      Cd  0.28669045  0.25062074  0.55658853     1.59900
O351        O  0.27681281  0.18317983  0.96393880    -0.79500
O352        O  0.27817324  0.31349652  0.58101939    -0.78200
C353        C  0.25430943  0.35224193  0.96731525     0.84400
C354        C  0.14981300  0.24833150  0.52088612     0.84000
O355        O  0.23064918  0.35053047  0.55786525    -0.77100
C356        C  0.25491465  0.15127969  0.57964220     0.84800
O357        O  0.23255504  0.35461041  0.98877358    -0.77200
C358        C  0.25547895  0.14458992  0.96819123     0.85000
C359        C  0.35903119  0.25152533  0.52131856     0.85300
O360        O  0.34163178  0.25093347  0.99776660    -0.79600
C361        C  0.33889824  0.99899581  0.90113891    -0.04000
C362        C  0.36000976  0.04427276  0.89649109    -0.01100
C363        C  0.40058610  0.04409590  0.89653495     0.03900
C364        C  0.42085842  0.49874276  0.90152551    -0.04000
C365        C  0.39977817  0.45343526  0.89680563    -0.01100
C366        C  0.35919224  0.45367146  0.89630918     0.03900
C367        C  0.34054488  0.08988421  0.88791816     0.38500
C368        C  0.41931179  0.40771834  0.88866445     0.38500
C369        C  0.33897968  0.40874783  0.88676214     0.36900
C370        C  0.42094183  0.08936432  0.88770889     0.36900
N371        N  0.32312406  0.37293890  0.87885553    -0.37900
N372        N  0.43695848  0.12541393  0.88036361    -0.37900
N373        N  0.43452743  0.37113657  0.88192143    -0.37300
N374        N  0.32535758  0.12636769  0.88086236    -0.37300
C375        C  0.08882908  0.50028337  0.90197060    -0.04000
C376        C  0.11004674  0.04566431  0.89786715    -0.01100
C377        C  0.15064532  0.04532393  0.89773306     0.03900
C378        C  0.17087919  0.49963004  0.90184911    -0.04000
C379        C  0.14956686  0.45465827  0.89671132    -0.01100
C380        C  0.10899644  0.45507347  0.89654755     0.03900
C381        C  0.09069276  0.09164880  0.88978994     0.38500
C382        C  0.16880267  0.40912102  0.88790012     0.38500
C383        C  0.08854852  0.41036716  0.88692979     0.36900
C384        C  0.17095104  0.09105207  0.88960984     0.36900
N385        N  0.07247531  0.37477450  0.87895592    -0.37900
N386        N  0.18676780  0.12766655  0.88292927    -0.37900
N387        N  0.18372233  0.37265007  0.88063437    -0.37300
N388        N  0.07563033  0.12846178  0.88313161    -0.37300
C389        C  0.25497252  0.00007907  0.74134111    -0.04000
C390        C  0.26688040  0.04397220  0.75574905    -0.01100
C391        C  0.26671191  0.04500702  0.78546337     0.03900
C392        C  0.25428985  0.00235210  0.80071018    -0.04000
C393        C  0.24245183  0.45850808  0.78632753    -0.00700
C394        C  0.24293308  0.45728240  0.75664792     0.03900
C395        C  0.27833180  0.08826262  0.73987030     0.38500
C396        C  0.23078252  0.41440860  0.80227656     0.38500
C397        C  0.23215342  0.41166501  0.74175543     0.36900
C398        C  0.27859104  0.09003770  0.80049099     0.36900
N399        N  0.22362305  0.37516050  0.72987960    -0.37900
N400        N  0.28809925  0.12599498  0.81250361    -0.37900
N401        N  0.22149831  0.37927096  0.81511041    -0.37300
N402        N  0.28743011  0.12360915  0.72713800    -0.37300
C403        C  0.33899462  0.99431444  0.63628011    -0.04000
C404        C  0.35980288  0.00813001  0.61166461    -0.01100
C405        C  0.40042847  0.00776926  0.61174939     0.03900
C406        C  0.42094220  0.49433165  0.63657436    -0.04000
C407        C  0.40002857  0.46383026  0.65593278    -0.01100
C408        C  0.35938839  0.46359720  0.65567372     0.03900
C409        C  0.33999614  0.01448038  0.58494795     0.38500
C410        C  0.41953737  0.42614189  0.67269300     0.38500
C411        C  0.33923446  0.42530056  0.67190112     0.36900
C412        C  0.42041808  0.01284937  0.58505646     0.36900
N413        N  0.32344750  0.39425019  0.68464348    -0.37900
N414        N  0.43623413  0.01626934  0.56369737    -0.37900
N415        N  0.43462231  0.39552192  0.68596747    -0.37300
N416        N  0.32450993  0.01898940  0.56347512    -0.37300
C417        C  0.17088586  0.50548925  0.63602562    -0.04000
C418        C  0.15102252  0.03622275  0.65560512    -0.01100
C419        C  0.11041731  0.03689329  0.65578181     0.03900
C420        C  0.08914445  0.50721577  0.63624114    -0.04000
C421        C  0.10922772  0.49451167  0.61123913    -0.01100
C422        C  0.14982447  0.49339574  0.61115430     0.03900
C423        C  0.17174336  0.07376756  0.67204225     0.38500
C424        C  0.08893092  0.49127438  0.58450450     0.38500
C425        C  0.16934285  0.48862427  0.58430466     0.36900
C426        C  0.09132202  0.07480718  0.67249692     0.36900
N427        N  0.18460753  0.48542773  0.56273996    -0.37900
N428        N  0.07649214  0.10575061  0.68557569    -0.37900
N429        N  0.07293747  0.48934766  0.56309600    -0.37300
N430        N  0.18807500  0.10419517  0.68491738    -0.37300
C431        C  0.50565919  0.99907344  0.80109519    -0.04000
C432        C  0.00724035  0.04499650  0.78629437    -0.01100
C433        C  0.00751454  0.04500372  0.75659879     0.03900
C434        C  0.50649247  0.99905673  0.74182625    -0.04000
C435        C  0.50572257  0.45308192  0.75664466    -0.01100
C436        C  0.50512575  0.45309613  0.78635408     0.03900
C437        C  0.00873733  0.09191329  0.80184054     0.38500
C438        C  0.50583335  0.40611580  0.74113952     0.38500
C439        C  0.50422173  0.40617537  0.80197077     0.36900
C440        C  0.00904631  0.09198672  0.74108428     0.36900
N441        N  0.50353018  0.36881212  0.81457454    -0.37900
N442        N  0.01027397  0.12956744  0.72870849    -0.37900
N443        N  0.50613491  0.36865714  0.72867828    -0.37300
N444        N  0.01003895  0.12929379  0.81436295    -0.37300
C445        C  0.04476354  0.50236209  0.13795306     0.31400
C446        C  0.46541404  0.99938746  0.13812250     0.31400
C447        C  0.02556319  0.99941314  0.16723153    -0.04800
C448        C  0.02431367  0.54727700  0.12445754    -0.05600
C449        C  0.02549497  0.95645702  0.12357300    -0.05500
C450        C  0.48534142  0.99989292  0.16738212    -0.04900
C451        C  0.48436994  0.54631056  0.12474414    -0.05600
C452        C  0.48558361  0.95608158  0.12311631    -0.05500
C453        C  0.47436820  0.00213349  0.19526776    -0.30900
N454        N  0.50610520  0.49909976  0.21161399     0.15600
C455        C  0.03738584  0.49663704  0.19494370    -0.30900
H456        H  0.06647116  0.49379005  0.20261814     0.17500
C457        C  0.47261264  0.58924671  0.11099412    -0.29900
N458        N  0.00395824  0.61455785  0.10162667     0.14300
C459        C  0.03569800  0.58987353  0.11012058    -0.29900
C460        C  0.47383219  0.91534911  0.10737900    -0.30200
N461        N  0.50525057  0.89001109  0.09906153     0.14800
H462        H  0.44462949  0.90559102  0.10166456     0.17500
C463        C  0.03683290  0.91356112  0.10954538    -0.30200
H464        H  0.06590813  0.90176012  0.10572490     0.17500
H465        H  0.06476804  0.60021940  0.10450905     0.17500
H466        H  0.44554264  0.00547549  0.20327319     0.17500
H467        H  0.44343793  0.60035072  0.10679773     0.17500
C468        C  0.29458171  0.49885292  0.13757171     0.31400
C469        C  0.21523427  0.00020605  0.13736879     0.31400
C470        C  0.27501011  0.99921206  0.16675238    -0.04800
C471        C  0.27562118  0.54549887  0.12411008    -0.05600
C472        C  0.27405193  0.95470678  0.12286518    -0.05500
C473        C  0.23484707  0.99776852  0.16666528    -0.04900
C474        C  0.23569619  0.54498093  0.12360803    -0.05600
C475        C  0.23408046  0.95484313  0.12284468    -0.05500
C476        C  0.22349015  0.99524659  0.19445577    -0.30900
N477        N  0.25500655  0.49896949  0.21106971     0.15600
C478        C  0.28646847  0.50228538  0.19453780    -0.30900
H479        H  0.31545757  0.50638609  0.20233583     0.17500
C480        C  0.22387878  0.58605223  0.10855443    -0.29900
N481        N  0.25521896  0.61250028  0.10048102     0.14300
C482        C  0.28690226  0.58933378  0.11057146    -0.29900
C483        C  0.22241193  0.91243545  0.10824465    -0.30200
N484        N  0.25387252  0.88825433  0.09885025     0.14800
H485        H  0.19328172  0.90054128  0.10392689     0.17500
C486        C  0.28553808  0.91311408  0.10802159    -0.30200
H487        H  0.31466029  0.90321144  0.10290227     0.17500
H488        H  0.31595366  0.60179017  0.10654720     0.17500
H489        H  0.19447500  0.99214183  0.20221754     0.17500
H490        H  0.19474227  0.59487938  0.10273051     0.17500
C491        C  0.46522725  0.99889059  0.40421963     0.31400
C492        C  0.04443748  0.50014977  0.40441923     0.31400
C493        C  0.48506621  0.99934644  0.37544945    -0.04800
C494        C  0.48463818  0.54349506  0.41974160    -0.05600
C495        C  0.48475170  0.95460579  0.41957802    -0.05500
C496        C  0.02480160  0.00008722  0.37561180    -0.04900
C497        C  0.02476609  0.54450544  0.41971285    -0.05600
C498        C  0.02487836  0.95491800  0.41947109    -0.05500
C499        C  0.03674114  0.50003713  0.34801590    -0.30900
N500        N  0.50527206  0.49915994  0.33129234     0.15600
C501        C  0.47352589  0.99873744  0.34765669    -0.30900
H502        H  0.44438744  0.99800204  0.33985815     0.17500
C503        C  0.03593964  0.58210831  0.43826195    -0.29900
N504        N  0.00421935  0.60395475  0.44894394     0.14300
C505        C  0.47291830  0.57940296  0.43880806    -0.29900
C506        C  0.03639173  0.91689239  0.43744515    -0.30200
N507        N  0.50484880  0.89374453  0.44809966     0.14800
H508        H  0.06549701  0.90825324  0.44350812     0.17500
C509        C  0.47335630  0.91766858  0.43836932    -0.30200
H510        H  0.44436138  0.90935246  0.44496584     0.17500
H511        H  0.44380482  0.58665953  0.44524853     0.17500
H512        H  0.06599045  0.50045641  0.34057479     0.17500
H513        H  0.06491791  0.59136782  0.44465883     0.17500
C514        C  0.21531533  0.99916783  0.40417954     0.31400
C515        C  0.29453566  0.49910205  0.40378970     0.31400
C516        C  0.23478624  0.00073727  0.37528443    -0.04800
C517        C  0.23539769  0.54270816  0.42012148    -0.05600
C518        C  0.23459209  0.95387876  0.41878023    -0.05500
C519        C  0.27452338  0.00075808  0.37513691    -0.04900
C520        C  0.27551316  0.54317016  0.41976513    -0.05600
C521        C  0.27471953  0.95352823  0.41839844    -0.05500
C522        C  0.28605800  0.50228288  0.34745842    -0.30900
N523        N  0.25435573  0.50310666  0.33095282     0.15600
C524        C  0.22286163  0.00209637  0.34760765    -0.30900
H525        H  0.19359551  0.00195459  0.34006447     0.17500
C526        C  0.28729067  0.58142443  0.43770824    -0.29900
N527        N  0.25583524  0.60376186  0.44851818     0.14300
C528        C  0.22425550  0.57919776  0.43893324    -0.29900
C529        C  0.28603096  0.91567256  0.43658567    -0.30200
N530        N  0.25442736  0.89306865  0.44750407     0.14800
H531        H  0.31509355  0.90694860  0.44271920     0.17500
C532        C  0.22306748  0.91737825  0.43784059    -0.30200
H533        H  0.19409228  0.90978782  0.44472797     0.17500
H534        H  0.19529316  0.58700428  0.44555356     0.17500
H535        H  0.31520846  0.50218272  0.33980411     0.17500
H536        H  0.31643590  0.59088265  0.44355288     0.17500
O537        O  0.41809726  0.79225997  0.02196539    -0.77100
C538        C  0.50540703  0.85034157  0.07873415     0.83900
O539        O  0.02602847  0.81487225  0.46336626    -0.78300
O540        O  0.09240968  0.75028751  0.04485152    -0.79700
O541        O  0.47950866  0.64951123  0.06053165    -0.79500
O542        O  0.41601314  0.70811897  0.02162902    -0.78200
Zn543      Zn  0.47293907  0.81109528  0.02303274     1.55700
O544        O  0.02802140  0.68887145  0.08204270    -0.79600
Cd545      Cd  0.47181695  0.68904278  0.02359986     1.59700
Cd546      Cd  0.03461803  0.74965758  0.48710525     1.59600
O547        O  0.48199862  0.64146617  0.49007752    -0.79600
O548        O  0.50386799  0.75116238  0.02252296    -1.90100
Cd549      Cd  0.03691151  0.75144166  0.05690625     1.59900
O550        O  0.02487644  0.68351471  0.46419657    -0.79500
O551        O  0.02964878  0.81517646  0.08111759    -0.78200
C552        C  0.50474919  0.85285304  0.46782172     0.84400
C553        C  0.39991498  0.75068271  0.02138919     0.84000
O554        O  0.48178861  0.85194767  0.05825232    -0.77100
C555        C  0.00353269  0.65317307  0.08068286     0.84800
O556        O  0.48325765  0.85546913  0.48939365    -0.77200
C557        C  0.00374603  0.64480757  0.46864801     0.85000
C558        C  0.10888753  0.74930425  0.02105095     0.85300
O559        O  0.09121344  0.74907441  0.49759996    -0.79600
O560        O  0.16787260  0.78999743  0.02127525    -0.77100
C561        C  0.25393869  0.84862834  0.07854361     0.83900
O562        O  0.27596861  0.81456264  0.46306123    -0.78300
O563        O  0.34228909  0.75170924  0.04500925    -0.79700
O564        O  0.23093520  0.64776212  0.05945198    -0.79500
O565        O  0.16609266  0.70586357  0.02120891    -0.78200
Zn566      Zn  0.22247285  0.80982971  0.02244521     1.55700
O567        O  0.27898270  0.68738045  0.08133909    -0.79600
Cd568      Cd  0.22231775  0.68796026  0.02293047     1.59700
Cd569      Cd  0.28520959  0.74965373  0.48689035     1.59600
O570        O  0.23321260  0.64141195  0.48931604    -0.79600
O571        O  0.25393879  0.75039060  0.02205769    -1.90100
Cd572      Cd  0.28668945  0.75062223  0.05658826     1.59900
O573        O  0.27680977  0.68317986  0.46393826    -0.79500
O574        O  0.27817030  0.81349733  0.08101936    -0.78200
C575        C  0.25430982  0.85224207  0.46731506     0.84400
C576        C  0.14981176  0.74833115  0.02088632     0.84000
O577        O  0.23064631  0.85053035  0.05786468    -0.77100
C578        C  0.25491773  0.65127899  0.07964176     0.84800
O579        O  0.23255511  0.85461068  0.48877312    -0.77200
C580        C  0.25547578  0.64459032  0.46819078     0.85000
C581        C  0.35902989  0.75152609  0.02131789     0.85300
O582        O  0.34163005  0.75093072  0.49776592    -0.79600
C583        C  0.33889611  0.49899567  0.40113917    -0.04000
C584        C  0.36000771  0.54427255  0.39649137    -0.01100
C585        C  0.40058404  0.54409530  0.39653491     0.03900
C586        C  0.42086064  0.99874370  0.40152548    -0.04000
C587        C  0.39978062  0.95343610  0.39680542    -0.01100
C588        C  0.35919465  0.95367194  0.39630905     0.03900
C589        C  0.34054295  0.58988416  0.38791866     0.38500
C590        C  0.41931437  0.90771955  0.38866371     0.38500
C591        C  0.33898226  0.90874806  0.38676245     0.36900
C592        C  0.42093977  0.58936358  0.38770843     0.36900
N593        N  0.32312694  0.87293854  0.37885603    -0.37900
N594        N  0.43695642  0.62541302  0.38036296    -0.37900
N595        N  0.43453034  0.87113824  0.38192033    -0.37300
N596        N  0.32535573  0.62636798  0.38086315    -0.37300
C597        C  0.08883120  0.00028444  0.40197026    -0.04000
C598        C  0.11004446  0.54566319  0.39786689    -0.01100
C599        C  0.15064306  0.54532274  0.39773251     0.03900
C600        C  0.17088131  0.99963110  0.40184931    -0.04000
C601        C  0.14956913  0.95465954  0.39671099    -0.01100
C602        C  0.10899874  0.95507473  0.39654691     0.03900
C603        C  0.09069046  0.59164767  0.38978954     0.38500
C604        C  0.16880519  0.90912265  0.38789933     0.38500
C605        C  0.08855094  0.91036851  0.38692874     0.36900
C606        C  0.17094854  0.59105062  0.38960867     0.36900
N607        N  0.07247788  0.87477621  0.37895438    -0.37900
N608        N  0.18676527  0.62766510  0.38292772    -0.37900
N609        N  0.18372510  0.87265222  0.38063326    -0.37300
N610        N  0.07562806  0.62846056  0.38313106    -0.37300
C611        C  0.25497605  0.50007710  0.24134116    -0.04000
C612        C  0.26688314  0.54397021  0.25574937    -0.01100
C613        C  0.26671273  0.54500535  0.28546367     0.03900
C614        C  0.25428973  0.50235051  0.30071014    -0.04000
C615        C  0.24245067  0.95851006  0.28632772    -0.00700
C616        C  0.24292999  0.95728462  0.25664810     0.03900
C617        C  0.27833536  0.58826088  0.23987098     0.38500
C618        C  0.23078169  0.91441067  0.30227703     0.38500
C619        C  0.23214899  0.91166749  0.24175579     0.36900
C620        C  0.27859072  0.59003629  0.30049160     0.36900
N621        N  0.22361747  0.87516337  0.22988006    -0.37900
N622        N  0.28809803  0.62599389  0.31250445    -0.37900
N623        N  0.22149788  0.87927301  0.31511098    -0.37300
N624        N  0.28743453  0.62360725  0.22713895    -0.37300
C625        C  0.33899909  0.49431340  0.13628034    -0.04000
C626        C  0.35980726  0.50812812  0.11166471    -0.01100
C627        C  0.40043286  0.50776730  0.11174944     0.03900
C628        C  0.42093782  0.99433192  0.13657398    -0.04000
C629        C  0.40002412  0.96383005  0.15593214    -0.01100
C630        C  0.35938393  0.96359752  0.15567334     0.03900
C631        C  0.34000046  0.51447734  0.08494784     0.38500
C632        C  0.41953280  0.92614096  0.17269195     0.38500
C633        C  0.33922982  0.92530124  0.17190095     0.36900
C634        C  0.42042245  0.51284522  0.08505640     0.36900
N635        N  0.32344281  0.89425149  0.18464365    -0.37900
N636        N  0.43623860  0.51626370  0.06369715    -0.37900
N637        N  0.43461756  0.89552050  0.18596616    -0.37300
N638        N  0.32451419  0.51898523  0.06347503    -0.37300
C639        C  0.17088151  0.00548909  0.13602573    -0.04000
C640        C  0.15102696  0.53622353  0.15560480    -0.01100
C641        C  0.11042178  0.53689494  0.15578116     0.03900
C642        C  0.08914005  0.00721450  0.13624169    -0.04000
C643        C  0.10922329  0.99451153  0.11123949    -0.01100
C644        C  0.14982000  0.99339563  0.11115447     0.03900
C645        C  0.17174797  0.57376757  0.17204252     0.38500
C646        C  0.08892634  0.99127595  0.08450462     0.38500
C647        C  0.16933805  0.98862452  0.08430479     0.36900
C648        C  0.09132672  0.57481027  0.17249555     0.36900
N649        N  0.18460284  0.98542826  0.06274005    -0.37900
N650        N  0.07649706  0.60575441  0.18557370    -0.37900
N651        N  0.07293296  0.98935082  0.06309617    -0.37300
N652        N  0.18807974  0.60419434  0.18491814    -0.37300
C653        C  0.50565939  0.49907284  0.30109533    -0.04000
C654        C  0.00724500  0.54499626  0.28629506    -0.01100
C655        C  0.00752149  0.54500465  0.25659948     0.03900
C656        C  0.50649730  0.49905835  0.24182632    -0.04000
C657        C  0.50572207  0.95308075  0.25664513    -0.01100
C658        C  0.50512766  0.95309612  0.28635462     0.03900
C659        C  0.00874392  0.59191233  0.30184173     0.38500
C660        C  0.50583415  0.90611411  0.24114045     0.38500
C661        C  0.50422813  0.90617601  0.30197192     0.36900
C662        C  0.00905724  0.59198806  0.24108578     0.36900
N663        N  0.50354027  0.86881292  0.31457602    -0.37900
N664        N  0.01028806  0.62956939  0.22871054    -0.37900
N665        N  0.50613676  0.86865484  0.22867970    -0.37300
N666        N  0.01004710  0.62929230  0.31436472    -0.37300
C667        C  0.04476349  0.50236206  0.63795305     0.31400
C668        C  0.46541394  0.99938745  0.63812250     0.31400
C669        C  0.02556298  0.99941318  0.66723145    -0.04800
C670        C  0.02431353  0.54727689  0.62445758    -0.05600
C671        C  0.02549495  0.95645716  0.62357298    -0.05500
C672        C  0.48534136  0.99989288  0.66738206    -0.04900
C673        C  0.48436999  0.54631069  0.62474414    -0.05600
C674        C  0.48558367  0.95608164  0.62311637    -0.05500
C675        C  0.47436795  0.00213365  0.69526774    -0.30900
N676        N  0.50610471  0.49910000  0.71161395     0.15600
C677        C  0.03738532  0.49663718  0.69494359    -0.30900
H678        H  0.06647351  0.49378992  0.70261870     0.17500
C679        C  0.47261258  0.58924688  0.61099415    -0.29900
N680        N  0.00395799  0.61455792  0.60162666     0.14300
C681        C  0.03569828  0.58987362  0.61012058    -0.29900
C682        C  0.47383196  0.91534927  0.60737897    -0.30200
N683        N  0.50525047  0.89001127  0.59906152     0.14800
H684        H  0.44463045  0.90559191  0.60166485     0.17500
C685        C  0.03683321  0.91356108  0.60954537    -0.30200
H686        H  0.06590624  0.90176094  0.60572515     0.17500
H687        H  0.06476561  0.60021807  0.60450930     0.17500
H688        H  0.44554320  0.00547498  0.70327292     0.17500
H689        H  0.44343807  0.60035096  0.60679779     0.17500
C690        C  0.29458166  0.49885281  0.63757162     0.31400
C691        C  0.21523426  0.00020602  0.63736881     0.31400
C692        C  0.27501026  0.99921228  0.66675248    -0.04800
C693        C  0.27562098  0.54549878  0.62411002    -0.05600
C694        C  0.27405181  0.95470682  0.62286525    -0.05500
C695        C  0.23484692  0.99776856  0.66666540    -0.04900
C696        C  0.23569575  0.54498115  0.62360794    -0.05600
C697        C  0.23408038  0.95484317  0.62284473    -0.05500
C698        C  0.22349063  0.99524675  0.69445569    -0.30900
N699        N  0.25500730  0.49896952  0.71106971     0.15600
C700        C  0.28646828  0.50228534  0.69453768    -0.30900
H701        H  0.31546081  0.50638634  0.70233657     0.17500
C702        C  0.22387932  0.58605221  0.60855449    -0.29900
N703        N  0.25521830  0.61250027  0.60048104     0.14300
C704        C  0.28690252  0.58933386  0.61057152    -0.29900
C705        C  0.22241218  0.91243546  0.60824477    -0.30200
N706        N  0.25387245  0.88825438  0.59885032     0.14800
H707        H  0.19328098  0.90054104  0.60392695     0.17500
C708        C  0.28553838  0.91311412  0.60802161    -0.30200
H709        H  0.31465888  0.90321230  0.60290248     0.17500
H710        H  0.31595148  0.60178917  0.60654747     0.17500
H711        H  0.19447140  0.99214085  0.70221843     0.17500
H712        H  0.19473696  0.59488149  0.60272948     0.17500
C713        C  0.46522725  0.99889044  0.90421964     0.31400
C714        C  0.04443755  0.50014973  0.90441928     0.31400
C715        C  0.48506635  0.99934623  0.87544954    -0.04800
C716        C  0.48463823  0.54349502  0.91974159    -0.05600
C717        C  0.48475170  0.95460571  0.91957806    -0.05500
C718        C  0.02480160  0.00008720  0.87561181    -0.04900
C719        C  0.02476580  0.54450530  0.91971281    -0.05600
C720        C  0.02487835  0.95491787  0.91947106    -0.05500
C721        C  0.03674096  0.50003732  0.84801594    -0.30900
N722        N  0.50527170  0.49916005  0.83129232     0.15600
C723        C  0.47352594  0.99873731  0.84765673    -0.30900
H724        H  0.44438845  0.99800200  0.83985854     0.17500
C725        C  0.03593971  0.58210836  0.93826201    -0.29900
N726        N  0.00421852  0.60395453  0.94894399     0.14300
C727        C  0.47291844  0.57940279  0.93880811    -0.29900
C728        C  0.03639156  0.91689242  0.93744513    -0.30200
N729        N  0.50484893  0.89374457  0.94809972     0.14800
H730        H  0.06549799  0.90825283  0.94350832     0.17500
C731        C  0.47335609  0.91766849  0.93836939    -0.30200
H732        H  0.44436195  0.90935255  0.94496592     0.17500
H733        H  0.44380417  0.58665955  0.94524877     0.17500
H734        H  0.06599481  0.50045705  0.84057359     0.17500
H735        H  0.06491425  0.59136694  0.94465815     0.17500
C736        C  0.21531541  0.99916773  0.90417949     0.31400
C737        C  0.29453565  0.49910199  0.90378974     0.31400
C738        C  0.23478651  0.00073725  0.87528442    -0.04800
C739        C  0.23539787  0.54270820  0.92012147    -0.05600
C740        C  0.23459188  0.95387861  0.91878021    -0.05500
C741        C  0.27452385  0.00075803  0.87513676    -0.04900
C742        C  0.27551346  0.54317014  0.91976528    -0.05600
C743        C  0.27471942  0.95352803  0.91839852    -0.05500
C744        C  0.28605838  0.50228272  0.84745839    -0.30900
N745        N  0.25435607  0.50310656  0.83095289     0.15600
C746        C  0.22286153  0.00209625  0.84760772    -0.30900
H747        H  0.19359697  0.00195451  0.84006516     0.17500
C748        C  0.28729039  0.58142412  0.93770824    -0.29900
N749        N  0.25583570  0.60376179  0.94851820     0.14300
C750        C  0.22425558  0.57919762  0.93893322    -0.29900
C751        C  0.28603082  0.91567239  0.93658572    -0.30200
N752        N  0.25442703  0.89306861  0.94750405     0.14800
H753        H  0.31509349  0.90694840  0.94271931     0.17500
C754        C  0.22306760  0.91737836  0.93784049    -0.30200
H755        H  0.19408978  0.90978721  0.94472806     0.17500
H756        H  0.19529355  0.58700423  0.94555334     0.17500
H757        H  0.31520725  0.50218225  0.83980448     0.17500
H758        H  0.31643968  0.59088345  0.94355370     0.17500
O759        O  0.41809723  0.79226001  0.52196539    -0.77100
C760        C  0.50540706  0.85034180  0.57873418     0.83900
O761        O  0.02602841  0.81487200  0.96336622    -0.78300
O762        O  0.09240978  0.75028771  0.54485148    -0.79700
O763        O  0.47950875  0.64951145  0.56053161    -0.79500
O764        O  0.41601327  0.70811889  0.52162898    -0.78200
Zn765      Zn  0.47293913  0.81109547  0.52303278     1.55700
O766        O  0.02802161  0.68887162  0.58204266    -0.79600
Cd767      Cd  0.47181709  0.68904294  0.52359981     1.59700
Cd768      Cd  0.03461795  0.74965739  0.98710518     1.59600
O769        O  0.48199856  0.64146603  0.99007758    -0.79600
O770        O  0.50386813  0.75116258  0.52252298    -1.90100
Cd771      Cd  0.03691167  0.75144182  0.55690629     1.59900
O772        O  0.02487623  0.68351439  0.96419652    -0.79500
O773        O  0.02964886  0.81517653  0.58111775    -0.78200
C774        C  0.50474908  0.85285301  0.96782173     0.84400
C775        C  0.39991502  0.75068267  0.52138914     0.84000
O776        O  0.48178857  0.85194795  0.55825243    -0.77100
C777        C  0.00353284  0.65317335  0.58068287     0.84800
O778        O  0.48325764  0.85546894  0.98939358    -0.77200
C779        C  0.00374591  0.64480727  0.96864803     0.85000
C780        C  0.10888761  0.74930428  0.52105090     0.85300
O781        O  0.09121340  0.74907429  0.99759997    -0.79600
O782        O  0.16787271  0.78999755  0.52127518    -0.77100
C783        C  0.25393901  0.84862824  0.57854365     0.83900
O784        O  0.27596861  0.81456272  0.96306134    -0.78300
O785        O  0.34228911  0.75170907  0.54500935    -0.79700
O786        O  0.23093522  0.64776222  0.55945204    -0.79500
O787        O  0.16609265  0.70586359  0.52120883    -0.78200
Zn788      Zn  0.22247296  0.80982977  0.52244523     1.55700
O789        O  0.27898272  0.68738038  0.58133920    -0.79600
Cd790      Cd  0.22231780  0.68796040  0.52293049     1.59700
Cd791      Cd  0.28520964  0.74965380  0.98689038     1.59600
O792        O  0.23321276  0.64141173  0.98931604    -0.79600
O793        O  0.25393902  0.75039054  0.52205783    -1.90100
Cd794      Cd  0.28668954  0.75062219  0.55658830     1.59900
O795        O  0.27680979  0.68318002  0.96393829    -0.79500
O796        O  0.27817046  0.81349727  0.58101937    -0.78200
C797        C  0.25430980  0.85224210  0.96731513     0.84400
C798        C  0.14981184  0.74833122  0.52088622     0.84000
O799        O  0.23064642  0.85053024  0.55786473    -0.77100
C800        C  0.25491785  0.65127918  0.57964198     0.84800
O801        O  0.23255486  0.85461063  0.98877304    -0.77200
C802        C  0.25547581  0.64459024  0.96819078     0.85000
C803        C  0.35902986  0.75152623  0.52131790     0.85300
O804        O  0.34163006  0.75093061  0.99776599    -0.79600
C805        C  0.33889603  0.49899560  0.90113917    -0.04000
C806        C  0.36000770  0.54427251  0.89649142    -0.01100
C807        C  0.40058402  0.54409527  0.89653496     0.03900
C808        C  0.42086066  0.99874350  0.90152547    -0.04000
C809        C  0.39978061  0.95343593  0.89680547    -0.01100
C810        C  0.35919463  0.95367177  0.89630910     0.03900
C811        C  0.34054299  0.58988410  0.88791867     0.38500
C812        C  0.41931451  0.90771936  0.88866375     0.38500
C813        C  0.33898213  0.90874785  0.88676249     0.36900
C814        C  0.42093987  0.58936349  0.88770849     0.36900
N815        N  0.32312690  0.87293842  0.87885609    -0.37900
N816        N  0.43695648  0.62541288  0.88036300    -0.37900
N817        N  0.43453040  0.87113813  0.88192039    -0.37300
N818        N  0.32535560  0.62636780  0.88086319    -0.37300
C819        C  0.08883122  0.00028428  0.90197024    -0.04000
C820        C  0.11004451  0.54566325  0.89786692    -0.01100
C821        C  0.15064313  0.54532274  0.89773247     0.03900
C822        C  0.17088133  0.99963111  0.90184936    -0.04000
C823        C  0.14956910  0.95465948  0.89671088    -0.01100
C824        C  0.10899872  0.95507458  0.89654693     0.03900
C825        C  0.09069046  0.59164763  0.88978965     0.38500
C826        C  0.16880517  0.90912256  0.88789933     0.38500
C827        C  0.08855094  0.91036837  0.88692858     0.36900
C828        C  0.17094876  0.59105061  0.88960864     0.36900
N829        N  0.07247787  0.87477612  0.87895432    -0.37900
N830        N  0.18676526  0.62766497  0.88292758    -0.37900
N831        N  0.18372507  0.87265199  0.88063331    -0.37300
N832        N  0.07562823  0.62846073  0.88313114    -0.37300
C833        C  0.25497607  0.50007708  0.74134116    -0.04000
C834        C  0.26688300  0.54397030  0.75574936    -0.01100
C835        C  0.26671255  0.54500541  0.78546368     0.03900
C836        C  0.25428982  0.50235049  0.80071019    -0.04000
C837        C  0.24245062  0.95850996  0.78632774    -0.00700
C838        C  0.24293004  0.95728450  0.75664813     0.03900
C839        C  0.27833509  0.58826074  0.73987092     0.38500
C840        C  0.23078182  0.91441046  0.80227699     0.38500
C841        C  0.23214917  0.91166737  0.74175573     0.36900
C842        C  0.27859028  0.59003632  0.80049160     0.36900
N843        N  0.22361785  0.87516312  0.72988007    -0.37900
N844        N  0.28809732  0.62599403  0.81250448    -0.37900
N845        N  0.22149806  0.87927287  0.81511103    -0.37300
N846        N  0.28743406  0.62360725  0.72713885    -0.37300
C847        C  0.33899908  0.49431355  0.63628032    -0.04000
C848        C  0.35980725  0.50812821  0.61166472    -0.01100
C849        C  0.40043290  0.50776745  0.61174947     0.03900
C850        C  0.42093775  0.99433197  0.63657396    -0.04000
C851        C  0.40002409  0.96383017  0.65593214    -0.01100
C852        C  0.35938393  0.96359759  0.65567326     0.03900
C853        C  0.34000031  0.51447750  0.58494798     0.38500
C854        C  0.41953289  0.92614110  0.67269185     0.38500
C855        C  0.33922991  0.92530132  0.67190088     0.36900
C856        C  0.42042246  0.51284546  0.58505645     0.36900
N857        N  0.32344287  0.89425133  0.68464346    -0.37900
N858        N  0.43623849  0.51626394  0.56369718    -0.37900
N859        N  0.43461757  0.89552045  0.68596598    -0.37300
N860        N  0.32451418  0.51898543  0.56347509    -0.37300
C861        C  0.17088154  0.00548907  0.63602568    -0.04000
C862        C  0.15102694  0.53622337  0.65560486    -0.01100
C863        C  0.11042179  0.53689490  0.65578113     0.03900
C864        C  0.08914003  0.00721446  0.63624168    -0.04000
C865        C  0.10922328  0.99451151  0.61123946    -0.01100
C866        C  0.14981999  0.99339557  0.61115450     0.03900
C867        C  0.17174806  0.57376761  0.67204240     0.38500
C868        C  0.08892627  0.99127582  0.58450462     0.38500
C869        C  0.16933825  0.98862439  0.58430470     0.36900
C870        C  0.09132684  0.57480999  0.67249540     0.36900
N871        N  0.18460284  0.98542811  0.56274007    -0.37900
N872        N  0.07649712  0.60575442  0.68557360    -0.37900
N873        N  0.07293292  0.98935065  0.56309621    -0.37300
N874        N  0.18807975  0.60419435  0.68491800    -0.37300
C875        C  0.50565936  0.49907284  0.80109530    -0.04000
C876        C  0.00724524  0.54499639  0.78629505    -0.01100
C877        C  0.00752175  0.54500482  0.75659948     0.03900
C878        C  0.50649739  0.49905844  0.74182633    -0.04000
C879        C  0.50572186  0.95308075  0.75664513    -0.01100
C880        C  0.50512741  0.95309615  0.78635457     0.03900
C881        C  0.00874452  0.59191247  0.80184175     0.38500
C882        C  0.50583355  0.90611420  0.74114055     0.38500
C883        C  0.50422769  0.90617594  0.80197189     0.36900
C884        C  0.00905770  0.59198835  0.74108582     0.36900
N885        N  0.50353946  0.86881306  0.81457609    -0.37900
N886        N  0.01028875  0.62956955  0.72871058    -0.37900
N887        N  0.50613588  0.86865495  0.72867965    -0.37300
N888        N  0.01004778  0.62929242  0.81436473    -0.37300
C889        C  0.54475911  0.00236092  0.13795339     0.31400
C890        C  0.96541844  0.49938737  0.13812278     0.31400
C891        C  0.52556811  0.49941568  0.16723145    -0.04800
C892        C  0.52430980  0.04727687  0.12445867    -0.05600
C893        C  0.52549938  0.45645693  0.12357355    -0.05500
C894        C  0.98534617  0.49989479  0.16738223    -0.04900
C895        C  0.98436610  0.04631133  0.12474475    -0.05600
C896        C  0.98558829  0.45608098  0.12311736    -0.05500
C897        C  0.97437317  0.50213546  0.19526787    -0.30900
N898        N  0.00609965  0.99909683  0.21161391     0.15600
C899        C  0.53738053  0.99663364  0.19494373    -0.30900
H900        H  0.56646791  0.99378610  0.20261876     0.17500
C901        C  0.97260978  0.08924821  0.11099506    -0.29900
N902        N  0.50395565  0.11455880  0.10162818     0.14300
C903        C  0.53569510  0.08987368  0.11012233    -0.29900
C904        C  0.97383635  0.41534784  0.10738053    -0.30200
N905        N  0.00525494  0.39001004  0.09906290     0.14800
H906        H  0.94463599  0.40559039  0.10166689     0.17500
C907        C  0.53683757  0.41356046  0.10954614    -0.30200
H908        H  0.56591026  0.40176070  0.10572551     0.17500
H909        H  0.56476389  0.10021844  0.10451121     0.17500
H910        H  0.94554743  0.50547620  0.20327346     0.17500
H911        H  0.94343441  0.10035333  0.10679780     0.17500
C912        C  0.79457716  0.99885330  0.13757156     0.31400
C913        C  0.71523880  0.50020594  0.13736894     0.31400
C914        C  0.77501485  0.49921191  0.16675264    -0.04800
C915        C  0.77561634  0.04549907  0.12411015    -0.05600
C916        C  0.77405613  0.45470649  0.12286533    -0.05500
C917        C  0.73485157  0.49776832  0.16666546    -0.04900
C918        C  0.73569139  0.04498132  0.12360795    -0.05600
C919        C  0.73408475  0.45484301  0.12284492    -0.05500
C920        C  0.72349462  0.49524569  0.19445578    -0.30900
N921        N  0.75500263  0.99897096  0.21106962     0.15600
C922        C  0.78646441  0.00228656  0.19453753    -0.30900
H923        H  0.81545325  0.00638760  0.20233533     0.17500
C924        C  0.72387457  0.08605265  0.10855434    -0.29900
N925        N  0.75521432  0.11250103  0.10048155     0.14300
C926        C  0.78689831  0.08933461  0.11057223    -0.29900
C927        C  0.72241615  0.41243547  0.10824504    -0.30200
N928        N  0.75387615  0.38825416  0.09885052     0.14800
H929        H  0.69328482  0.40054123  0.10392749     0.17500
C930        C  0.78554245  0.41311352  0.10802170    -0.30200
H931        H  0.81466214  0.40321184  0.10290246     0.17500
H932        H  0.81594591  0.10178985  0.10654921     0.17500
H933        H  0.69447801  0.49214025  0.20221779     0.17500
H934        H  0.69473580  0.09488105  0.10272985     0.17500
C935        C  0.96522503  0.49888941  0.40421969     0.31400
C936        C  0.54443971  0.00015056  0.40441884     0.31400
C937        C  0.98506419  0.49934438  0.37544955    -0.04800
C938        C  0.98464016  0.04349562  0.41974200    -0.05600
C939        C  0.98474955  0.45460515  0.41957865    -0.05500
C940        C  0.52479980  0.50008531  0.37561213    -0.04900
C941        C  0.52476841  0.04450580  0.41971303    -0.05600
C942        C  0.52487603  0.45491773  0.41947177    -0.05500
C943        C  0.53674245  0.00003885  0.34801537    -0.30900
N944        N  0.00527292  0.99916172  0.33129221     0.15600
C945        C  0.97352450  0.49873545  0.34765662    -0.30900
H946        H  0.94438554  0.49800097  0.33985776     0.17500
C947        C  0.53594198  0.08210840  0.43826234    -0.29900
N948        N  0.50422167  0.10395453  0.44894461     0.14300
C949        C  0.97292089  0.07940307  0.43880850    -0.29900
C950        C  0.53639010  0.41689249  0.43744618    -0.30200
N951        N  0.00484689  0.39374433  0.44810058     0.14800
H952        H  0.56549236  0.40825491  0.44350874     0.17500
C953        C  0.97335412  0.41766773  0.43837010    -0.30200
H954        H  0.94436034  0.40935146  0.44496628     0.17500
H955        H  0.94380306  0.08666005  0.44525020     0.17500
H956        H  0.56599388  0.00045824  0.34057328     0.17500
H957        H  0.56491992  0.09136781  0.44465906     0.17500
C958        C  0.71531324  0.49916688  0.40417942     0.31400
C959        C  0.79453781  0.99910213  0.40378949     0.31400
C960        C  0.73478459  0.50073597  0.37528438    -0.04800
C961        C  0.73540037  0.04270858  0.42012181    -0.05600
C962        C  0.73458993  0.45387822  0.41878055    -0.05500
C963        C  0.77452178  0.50075730  0.37513706    -0.04900
C964        C  0.77551585  0.04317005  0.41976542    -0.05600
C965        C  0.77471735  0.45352836  0.41839885    -0.05500
C966        C  0.78605948  0.00228392  0.34745813    -0.30900
N967        N  0.75435697  0.00310825  0.33095281     0.15600
C968        C  0.72286003  0.50209448  0.34760734    -0.30900
H969        H  0.69359655  0.50195267  0.34006457     0.17500
C970        C  0.78729342  0.08142407  0.43770845    -0.29900
N971        N  0.75583870  0.10376172  0.44851868     0.14300
C972        C  0.72425838  0.07919795  0.43893382    -0.29900
C973        C  0.78602970  0.41567276  0.43658595    -0.30200
N974        N  0.75442557  0.39306846  0.44750429     0.14800
H975        H  0.81508933  0.40695048  0.44271907     0.17500
C976        C  0.72306616  0.41737748  0.43784072    -0.30200
H977        H  0.69408790  0.40978575  0.44472880     0.17500
H978        H  0.69529734  0.08700448  0.44555405     0.17500
H979        H  0.81521015  0.00218338  0.33980338     0.17500
H980        H  0.81644095  0.09088300  0.44355312     0.17500
O981        O  0.91809854  0.29225939  0.02196781    -0.77100
C982        C  0.00541072  0.35034060  0.07873550     0.83900
O983        O  0.52602749  0.31487233  0.46336693    -0.78300
O984        O  0.59241133  0.25028484  0.04485182    -0.79700
O985        O  0.97950844  0.14951154  0.06053241    -0.79500
O986        O  0.91601456  0.20811831  0.02162860    -0.78200
Zn987      Zn  0.97294048  0.31109484  0.02303447     1.55700
O988        O  0.52802128  0.18887094  0.08204389    -0.79600
Cd989      Cd  0.97181834  0.18904241  0.02360028     1.59700
Cd990      Cd  0.53461872  0.24965798  0.48710592     1.59600
O991        O  0.98200080  0.14146556  0.49007832    -0.79600
O992        O  0.00386931  0.25116197  0.02252377    -1.90100
Cd993      Cd  0.53691338  0.25144021  0.05690706     1.59900
O994        O  0.52487816  0.18351474  0.46419718    -0.79500
O995        O  0.52965240  0.31517531  0.08111856    -0.78200
C996        C  0.00474807  0.35285284  0.46782268     0.84400
C997        C  0.89991635  0.25068208  0.02139011     0.84000
O998        O  0.98179151  0.35194687  0.05825416    -0.77100
C999        C  0.50353182  0.15317341  0.08068406     0.84800
O1000       O  0.98325748  0.35546903  0.48939512    -0.77200
C1001       C  0.50374831  0.14480706  0.46864884     0.85000
C1002       C  0.60888883  0.24930401  0.02105107     0.85300
O1003       O  0.59121417  0.24907643  0.49760034    -0.79600
O1004       O  0.66787382  0.28999762  0.02127698    -0.77100
C1005       C  0.75394216  0.34862799  0.07854390     0.83900
O1006       O  0.77596848  0.31456313  0.46306131    -0.78300
O1007       O  0.84229020  0.25170501  0.04500996    -0.79700
O1008       O  0.73093303  0.14776288  0.05945181    -0.79500
O1009       O  0.66609392  0.20586372  0.02120666    -0.78200
Zn1010     Zn  0.72247427  0.30982976  0.02244601     1.55700
O1011       O  0.77898063  0.18737974  0.08133966    -0.79600
Cd1012     Cd  0.72231880  0.18796064  0.02292986     1.59700
Cd1013     Cd  0.78521124  0.24965461  0.48689062     1.59600
O1014       O  0.73321534  0.14141175  0.48931622    -0.79600
O1015       O  0.75394036  0.25039054  0.02205797    -1.90100
Cd1016     Cd  0.78669042  0.25062078  0.05658861     1.59900
O1017       O  0.77681272  0.18318010  0.46393873    -0.79500
O1018       O  0.77817312  0.31349658  0.08101945    -0.78200
C1019       C  0.75430951  0.35224215  0.46731534     0.84400
C1020       C  0.64981302  0.24833128  0.02088608     0.84000
O1021       O  0.73064930  0.35053024  0.05786523    -0.77100
C1022       C  0.75491475  0.15127944  0.07964225     0.84800
O1023       O  0.73255511  0.35461055  0.48877370    -0.77200
C1024       C  0.75547878  0.14459020  0.46819122     0.85000
C1025       C  0.85903126  0.25152551  0.02131865     0.85300
O1026       O  0.84163164  0.25093336  0.49776655    -0.79600
C1027       C  0.83889825  0.99899596  0.40113889    -0.04000
C1028       C  0.86000974  0.04427294  0.39649104    -0.01100
C1029       C  0.90058603  0.04409611  0.39653502     0.03900
C1030       C  0.92085848  0.49874288  0.40152547    -0.04000
C1031       C  0.89977822  0.45343543  0.39680564    -0.01100
C1032       C  0.85919225  0.45367162  0.39630922     0.03900
C1033       C  0.84054491  0.08988434  0.38791810     0.38500
C1034       C  0.91931181  0.40771850  0.38866449     0.38500
C1035       C  0.83897969  0.40874806  0.38676226     0.36900
C1036       C  0.92094178  0.08936452  0.38770884     0.36900
N1037       N  0.82312413  0.37293892  0.37885563    -0.37900
N1038       N  0.93695853  0.12541405  0.38036365    -0.37900
N1039       N  0.93452750  0.37113679  0.38192136    -0.37300
N1040       N  0.82535743  0.12636774  0.38086233    -0.37300
C1041       C  0.58882900  0.50028337  0.40197068    -0.04000
C1042       C  0.61004670  0.04566436  0.39786715    -0.01100
C1043       C  0.65064533  0.04532397  0.39773308     0.03900
C1044       C  0.67087920  0.49963003  0.40184904    -0.04000
C1045       C  0.64956686  0.45465827  0.39671139    -0.01100
C1046       C  0.60899645  0.45507354  0.39654755     0.03900
C1047       C  0.59069273  0.09164886  0.38978990     0.38500
C1048       C  0.66880268  0.40912112  0.38790019     0.38500
C1049       C  0.58854851  0.41036686  0.38692991     0.36900
C1050       C  0.67095100  0.09105195  0.38960980     0.36900
N1051       N  0.57247538  0.37477436  0.37895608    -0.37900
N1052       N  0.68676790  0.12766648  0.38292920    -0.37900
N1053       N  0.68372242  0.37265021  0.38063445    -0.37300
N1054       N  0.57563041  0.12846193  0.38313156    -0.37300
C1055       C  0.75497262  0.00007904  0.24134104    -0.04000
C1056       C  0.76688063  0.04397205  0.25574900    -0.01100
C1057       C  0.76671213  0.04500696  0.28546332     0.03900
C1058       C  0.75428988  0.00235218  0.30071016    -0.04000
C1059       C  0.74245192  0.45850811  0.28632754    -0.00700
C1060       C  0.74293296  0.45728243  0.25664794     0.03900
C1061       C  0.77833191  0.08826250  0.23987028     0.38500
C1062       C  0.73078232  0.41440873  0.30227659     0.38500
C1063       C  0.73215335  0.41166531  0.24175553     0.36900
C1064       C  0.77859110  0.09003774  0.30049096     0.36900
N1065       N  0.72362285  0.37516075  0.22987961    -0.37900
N1066       N  0.78809941  0.12599506  0.31250353    -0.37900
N1067       N  0.72149823  0.37927125  0.31511053    -0.37300
N1068       N  0.78743030  0.12360894  0.22713792    -0.37300
C1069       C  0.83899456  0.99431417  0.13628011    -0.04000
C1070       C  0.85980288  0.00812999  0.11166468    -0.01100
C1071       C  0.90042851  0.00776913  0.11174938     0.03900
C1072       C  0.92094222  0.49433149  0.13657434    -0.04000
C1073       C  0.90002858  0.46383038  0.15593287    -0.01100
C1074       C  0.85938838  0.46359730  0.15567382     0.03900
C1075       C  0.83999606  0.01448038  0.08494787     0.38500
C1076       C  0.91953751  0.42614201  0.17269296     0.38500
C1077       C  0.83923448  0.42530057  0.17190106     0.36900
C1078       C  0.92041801  0.01284919  0.08505657     0.36900
N1079       N  0.82344762  0.39425021  0.18464346    -0.37900
N1080       N  0.93623425  0.01626912  0.06369740    -0.37900
N1081       N  0.93462232  0.39552205  0.18596751    -0.37300
N1082       N  0.82450998  0.01898963  0.06347511    -0.37300
C1083       C  0.67088596  0.50548924  0.13602561    -0.04000
C1084       C  0.65102248  0.03622262  0.15560516    -0.01100
C1085       C  0.61041728  0.03689318  0.15578187     0.03900
C1086       C  0.58914448  0.50721584  0.13624120    -0.04000
C1087       C  0.60922785  0.49451181  0.11123914    -0.01100
C1088       C  0.64982455  0.49339589  0.11115433     0.03900
C1089       C  0.67174345  0.07376742  0.17204232     0.38500
C1090       C  0.58893099  0.49127434  0.08450445     0.38500
C1091       C  0.66934290  0.48862446  0.08430456     0.36900
C1092       C  0.59132216  0.07480707  0.17249690     0.36900
N1093       N  0.68460757  0.48542789  0.06274001    -0.37900
N1094       N  0.57649209  0.10575046  0.18557566    -0.37900
N1095       N  0.57293745  0.48934754  0.06309603    -0.37300
N1096       N  0.68807497  0.10419493  0.18491755    -0.37300
C1097       C  0.00565914  0.99907346  0.30109521    -0.04000
C1098       C  0.50724017  0.04499643  0.28629434    -0.01100
C1099       C  0.50751441  0.04500368  0.25659873     0.03900
C1100       C  0.00649242  0.99905667  0.24182628    -0.04000
C1101       C  0.00572299  0.45308192  0.25664466    -0.01100
C1102       C  0.00512608  0.45309618  0.28635411     0.03900
C1103       C  0.50873668  0.09191316  0.30184046     0.38500
C1104       C  0.00583389  0.40611584  0.24113954     0.38500
C1105       C  0.00422238  0.40617547  0.30197085     0.36900
C1106       C  0.50904607  0.09198655  0.24108423     0.36900
N1107       N  0.00353126  0.36881206  0.31457454    -0.37900
N1108       N  0.51027374  0.12956742  0.22870848    -0.37900
N1109       N  0.00613577  0.36865697  0.22867837    -0.37300
N1110       N  0.51003797  0.12929373  0.31436290    -0.37300
C1111       C  0.54475912  0.00236101  0.63795339     0.31400
C1112       C  0.96541842  0.49938742  0.63812283     0.31400
C1113       C  0.52556768  0.49941600  0.66723132    -0.04800
C1114       C  0.52430966  0.04727696  0.62445869    -0.05600
C1115       C  0.52549952  0.45645699  0.62357356    -0.05500
C1116       C  0.98534593  0.49989484  0.66738236    -0.04900
C1117       C  0.98436580  0.04631145  0.62474473    -0.05600
C1118       C  0.98558810  0.45608097  0.62311736    -0.05500
C1119       C  0.97437335  0.50213559  0.69526783    -0.30900
N1120       N  0.00609963  0.99909692  0.71161393     0.15600
C1121       C  0.53738076  0.99663379  0.69494380    -0.30900
H1122       H  0.56646552  0.99378601  0.70261821     0.17500
C1123       C  0.97261010  0.08924811  0.61099506    -0.29900
N1124       N  0.50395555  0.11455891  0.60162814     0.14300
C1125       C  0.53569525  0.08987378  0.61012223    -0.29900
C1126       C  0.97383627  0.41534818  0.60738053    -0.30200
N1127       N  0.00525467  0.39001012  0.59906295     0.14800
H1128       H  0.94463411  0.40558999  0.60166665     0.17500
C1129       C  0.53683752  0.41356059  0.60954612    -0.30200
H1130       H  0.56591206  0.40175984  0.60572547     0.17500
H1131       H  0.56476296  0.10021792  0.60451131     0.17500
H1132       H  0.94554464  0.50547703  0.70327417     0.17500
H1133       H  0.94343106  0.10035461  0.60679751     0.17500
C1134       C  0.79457718  0.99885334  0.63757154     0.31400
C1135       C  0.71523873  0.50020596  0.63736892     0.31400
C1136       C  0.77501459  0.49921198  0.66675257    -0.04800
C1137       C  0.77561659  0.04549923  0.62411009    -0.05600
C1138       C  0.77405650  0.45470622  0.62286528    -0.05500
C1139       C  0.73485139  0.49776846  0.66666540    -0.04900
C1140       C  0.73569150  0.04498124  0.62360781    -0.05600
C1141       C  0.73408486  0.45484301  0.62284491    -0.05500
C1142       C  0.72349461  0.49524592  0.69445569    -0.30900
N1143       N  0.75500302  0.99897125  0.71106961     0.15600
C1144       C  0.78646392  0.00228667  0.69453742    -0.30900
H1145       H  0.81545685  0.00638800  0.70233615     0.17500
C1146       C  0.72387460  0.08605279  0.60855433    -0.29900
N1147       N  0.75521471  0.11250103  0.60048143     0.14300
C1148       C  0.78689782  0.08933457  0.61057219    -0.29900
C1149       C  0.72241606  0.41243552  0.60824509    -0.30200
N1150       N  0.75387679  0.38825404  0.59885053     0.14800
H1151       H  0.69328602  0.40054168  0.60392772     0.17500
C1152       C  0.78554184  0.41311364  0.60802174    -0.30200
H1153       H  0.81466779  0.40320947  0.60290147     0.17500
H1154       H  0.81594968  0.10179129  0.60654824     0.17500
H1155       H  0.69447769  0.49214053  0.70221772     0.17500
H1156       H  0.69473652  0.09488057  0.60272983     0.17500
C1157       C  0.96522509  0.49888922  0.90421966     0.31400
C1158       C  0.54443971  0.00015056  0.90441889     0.31400
C1159       C  0.98506451  0.49934429  0.87544956    -0.04800
C1160       C  0.98464032  0.04349566  0.91974203    -0.05600
C1161       C  0.98474966  0.45460490  0.91957856    -0.05500
C1162       C  0.52479966  0.50008533  0.87561220    -0.04900
C1163       C  0.52476837  0.04450584  0.91971312    -0.05600
C1164       C  0.52487634  0.45491762  0.91947188    -0.05500
C1165       C  0.53674243  0.00003876  0.84801542    -0.30900
N1166       N  0.00527260  0.99916167  0.83129222     0.15600
C1167       C  0.97352450  0.49873540  0.84765651    -0.30900
H1168       H  0.94438850  0.49800075  0.83985830     0.17500
C1169       C  0.53594172  0.08210836  0.93826233    -0.29900
N1170       N  0.50422134  0.10395454  0.94894460     0.14300
C1171       C  0.97292115  0.07940300  0.93880852    -0.29900
C1172       C  0.53638967  0.41689273  0.93744613    -0.30200
N1173       N  0.00484734  0.39374443  0.94810064     0.14800
H1174       H  0.56549658  0.40825356  0.94350953     0.17500
C1175       C  0.97335422  0.41766783  0.93837007    -0.30200
H1176       H  0.94436043  0.40935139  0.94496627     0.17500
H1177       H  0.94380320  0.08666084  0.94524980     0.17500
H1178       H  0.56599379  0.00045785  0.84057339     0.17500
H1179       H  0.56492083  0.09136855  0.94465930     0.17500
C1180       C  0.71531318  0.49916685  0.90417938     0.31400
C1181       C  0.79453784  0.99910205  0.90378952     0.31400
C1182       C  0.73478468  0.50073587  0.87528441    -0.04800
C1183       C  0.73540028  0.04270854  0.92012190    -0.05600
C1184       C  0.73459029  0.45387822  0.91878033    -0.05500
C1185       C  0.77452176  0.50075723  0.87513706    -0.04900
C1186       C  0.77551616  0.04317015  0.91976558    -0.05600
C1187       C  0.77471765  0.45352827  0.91839880    -0.05500
C1188       C  0.78605963  0.00228395  0.84745806    -0.30900
N1189       N  0.75435715  0.00310822  0.83095281     0.15600
C1190       C  0.72285991  0.50209451  0.84760739    -0.30900
H1191       H  0.69359767  0.50195196  0.84006510     0.17500
C1192       C  0.78729304  0.08142389  0.93770850    -0.29900
N1193       N  0.75583879  0.10376162  0.94851874     0.14300
C1194       C  0.72425889  0.07919765  0.93893373    -0.29900
C1195       C  0.78602941  0.41567275  0.93658583    -0.30200
N1196       N  0.75442638  0.39306826  0.94750418     0.14800
H1197       H  0.81509302  0.40694908  0.94271955     0.17500
C1198       C  0.72306569  0.41737728  0.93784068    -0.30200
H1199       H  0.69409297  0.40978678  0.94472730     0.17500
H1200       H  0.69529402  0.08700512  0.94555487     0.17500
H1201       H  0.81521055  0.00218286  0.83980321     0.17500
H1202       H  0.81644474  0.09088432  0.94355423     0.17500
O1203       O  0.91809863  0.29225928  0.52196776    -0.77100
C1204       C  0.00541042  0.35034088  0.57873548     0.83900
O1205       O  0.52602741  0.31487214  0.96336686    -0.78300
O1206       O  0.59241131  0.25028508  0.54485192    -0.79700
O1207       O  0.97950841  0.14951184  0.56053238    -0.79500
O1208       O  0.91601469  0.20811823  0.52162846    -0.78200
Zn1209     Zn  0.97294052  0.31109495  0.52303449     1.55700
O1210       O  0.52802131  0.18887106  0.58204390    -0.79600
Cd1211     Cd  0.97181845  0.18904254  0.52360022     1.59700
Cd1212     Cd  0.53461882  0.24965784  0.98710584     1.59600
O1213       O  0.98200073  0.14146552  0.99007828    -0.79600
O1214       O  0.00386946  0.25116217  0.52252398    -1.90100
Cd1215     Cd  0.53691329  0.25144038  0.55690711     1.59900
O1216       O  0.52487825  0.18351461  0.96419717    -0.79500
O1217       O  0.52965232  0.31517552  0.58111850    -0.78200
C1218       C  0.00474810  0.35285304  0.96782270     0.84400
C1219       C  0.89991644  0.25068197  0.52139003     0.84000
O1220       O  0.98179137  0.35194706  0.55825411    -0.77100
C1221       C  0.50353186  0.15317355  0.58068394     0.84800
O1222       O  0.98325754  0.35546893  0.98939507    -0.77200
C1223       C  0.50374830  0.14480703  0.96864871     0.85000
C1224       C  0.60888874  0.24930426  0.52105114     0.85300
O1225       O  0.59121436  0.24907629  0.99760025    -0.79600
O1226       O  0.66787388  0.28999783  0.52127710    -0.77100
C1227       C  0.75394202  0.34862821  0.57854384     0.83900
O1228       O  0.77596855  0.31456294  0.96306131    -0.78300
O1229       O  0.84229024  0.25170486  0.54500985    -0.79700
O1230       O  0.73093309  0.14776308  0.55945183    -0.79500
O1231       O  0.66609386  0.20586393  0.52120663    -0.78200
Zn1232     Zn  0.72247430  0.30982987  0.52244604     1.55700
O1233       O  0.77898065  0.18737996  0.58133965    -0.79600
Cd1234     Cd  0.72231871  0.18796076  0.52292986     1.59700
Cd1235     Cd  0.78521129  0.24965451  0.98689067     1.59600
O1236       O  0.73321533  0.14141163  0.98931615    -0.79600
O1237       O  0.75394019  0.25039070  0.52205786    -1.90100
Cd1238     Cd  0.78669043  0.25062071  0.55658854     1.59900
O1239       O  0.77681278  0.18317985  0.96393879    -0.79500
O1240       O  0.77817321  0.31349649  0.58101940    -0.78200
C1241       C  0.75430923  0.35224200  0.96731527     0.84400
C1242       C  0.64981300  0.24833153  0.52088612     0.84000
O1243       O  0.73064920  0.35053050  0.55786527    -0.77100
C1244       C  0.75491480  0.15127967  0.57964217     0.84800
O1245       O  0.73255502  0.35461048  0.98877360    -0.77200
C1246       C  0.75547891  0.14458991  0.96819125     0.85000
C1247       C  0.85903128  0.25152533  0.52131855     0.85300
O1248       O  0.84163173  0.25093347  0.99776660    -0.79600
C1249       C  0.83889827  0.99899580  0.90113891    -0.04000
C1250       C  0.86000973  0.04427276  0.89649108    -0.01100
C1251       C  0.90058609  0.04409593  0.89653495     0.03900
C1252       C  0.92085847  0.49874266  0.90152546    -0.04000
C1253       C  0.89977820  0.45343523  0.89680563    -0.01100
C1254       C  0.85919222  0.45367148  0.89630910     0.03900
C1255       C  0.84054491  0.08988416  0.88791816     0.38500
C1256       C  0.91931174  0.40771831  0.88866446     0.38500
C1257       C  0.83897964  0.40874791  0.88676215     0.36900
C1258       C  0.92094186  0.08936432  0.88770890     0.36900
N1259       N  0.82312401  0.37293895  0.87885545    -0.37900
N1260       N  0.93695844  0.12541401  0.88036359    -0.37900
N1261       N  0.93452737  0.37113655  0.88192143    -0.37300
N1262       N  0.82535754  0.12636765  0.88086237    -0.37300
C1263       C  0.58882913  0.50028342  0.90197058    -0.04000
C1264       C  0.61004676  0.04566431  0.89786717    -0.01100
C1265       C  0.65064536  0.04532391  0.89773306     0.03900
C1266       C  0.67087913  0.49963006  0.90184906    -0.04000
C1267       C  0.64956684  0.45465830  0.89671126    -0.01100
C1268       C  0.60899645  0.45507351  0.89654745     0.03900
C1269       C  0.59069279  0.09164881  0.88978996     0.38500
C1270       C  0.66880271  0.40912105  0.88790006     0.38500
C1271       C  0.58854852  0.41036716  0.88692988     0.36900
C1272       C  0.67095099  0.09105200  0.88960983     0.36900
N1273       N  0.57247523  0.37477447  0.87895608    -0.37900
N1274       N  0.68676783  0.12766656  0.88292927    -0.37900
N1275       N  0.68372229  0.37265005  0.88063430    -0.37300
N1276       N  0.57563051  0.12846190  0.88313159    -0.37300
C1277       C  0.75497253  0.00007915  0.74134112    -0.04000
C1278       C  0.76688050  0.04397223  0.75574903    -0.01100
C1279       C  0.76671207  0.04500697  0.78546336     0.03900
C1280       C  0.75428981  0.00235211  0.80071016    -0.04000
C1281       C  0.74245176  0.45850814  0.78632754    -0.00700
C1282       C  0.74293292  0.45728255  0.75664795     0.03900
C1283       C  0.77833161  0.08826274  0.73987021     0.38500
C1284       C  0.73078244  0.41440874  0.80227653     0.38500
C1285       C  0.73215322  0.41166527  0.74175532     0.36900
C1286       C  0.77859101  0.09003787  0.80049098     0.36900
N1287       N  0.72362267  0.37516085  0.72987946    -0.37900
N1288       N  0.78809934  0.12599511  0.81250365    -0.37900
N1289       N  0.72149828  0.37927103  0.81511039    -0.37300
N1290       N  0.78742996  0.12360920  0.72713782    -0.37300
C1291       C  0.83899465  0.99431437  0.63628013    -0.04000
C1292       C  0.85980286  0.00812999  0.61166463    -0.01100
C1293       C  0.90042849  0.00776915  0.61174941     0.03900
C1294       C  0.92094221  0.49433165  0.63657433    -0.04000
C1295       C  0.90002857  0.46383026  0.65593276    -0.01100
C1296       C  0.85938839  0.46359725  0.65567373     0.03900
C1297       C  0.83999607  0.01448039  0.58494797     0.38500
C1298       C  0.91953749  0.42614185  0.67269299     0.38500
C1299       C  0.83923433  0.42530061  0.67190112     0.36900
C1300       C  0.92041812  0.01284934  0.58505645     0.36900
N1301       N  0.82344754  0.39425024  0.68464345    -0.37900
N1302       N  0.93623412  0.01626936  0.56369731    -0.37900
N1303       N  0.93462242  0.39552199  0.68596743    -0.37300
N1304       N  0.82451009  0.01898943  0.56347503    -0.37300
C1305       C  0.67088598  0.50548932  0.63602562    -0.04000
C1306       C  0.65102244  0.03622289  0.65560509    -0.01100
C1307       C  0.61041727  0.03689338  0.65578182     0.03900
C1308       C  0.58914448  0.50721584  0.63624114    -0.04000
C1309       C  0.60922780  0.49451167  0.61123917    -0.01100
C1310       C  0.64982456  0.49339576  0.61115433     0.03900
C1311       C  0.67174338  0.07376780  0.67204222     0.38500
C1312       C  0.58893095  0.49127436  0.58450448     0.38500
C1313       C  0.66934278  0.48862428  0.58430469     0.36900
C1314       C  0.59132206  0.07480730  0.67249692     0.36900
N1315       N  0.68460755  0.48542773  0.56273997    -0.37900
N1316       N  0.57649207  0.10575064  0.68557563    -0.37900
N1317       N  0.57293764  0.48934765  0.56309594    -0.37300
N1318       N  0.68807489  0.10419534  0.68491733    -0.37300
C1319       C  0.00565906  0.99907351  0.80109522    -0.04000
C1320       C  0.50724058  0.04499645  0.78629436    -0.01100
C1321       C  0.50751464  0.04500371  0.75659876     0.03900
C1322       C  0.00649244  0.99905675  0.74182627    -0.04000
C1323       C  0.00572276  0.45308203  0.75664466    -0.01100
C1324       C  0.00512582  0.45309626  0.78635409     0.03900
C1325       C  0.50873758  0.09191310  0.80184053     0.38500
C1326       C  0.00583344  0.40611584  0.74113955     0.38500
C1327       C  0.00422195  0.40617565  0.80197081     0.36900
C1328       C  0.50904666  0.09198662  0.74108429     0.36900
N1329       N  0.00353046  0.36881227  0.81457458    -0.37900
N1330       N  0.51027441  0.12956741  0.72870850    -0.37900
N1331       N  0.00613509  0.36865717  0.72867830    -0.37300
N1332       N  0.51003918  0.12929367  0.81436299    -0.37300
C1333       C  0.54476353  0.50236202  0.13795304     0.31400
C1334       C  0.96541406  0.99938740  0.13812252     0.31400
C1335       C  0.52556318  0.99941317  0.16723148    -0.04800
C1336       C  0.52431343  0.54727685  0.12445760    -0.05600
C1337       C  0.52549497  0.95645696  0.12357302    -0.05500
C1338       C  0.98534133  0.99989290  0.16738219    -0.04900
C1339       C  0.98437005  0.54631063  0.12474410    -0.05600
C1340       C  0.98558363  0.95608150  0.12311631    -0.05500
C1341       C  0.97436837  0.00213345  0.19526770    -0.30900
N1342       N  0.00610484  0.49909983  0.21161397     0.15600
C1343       C  0.53738537  0.49663703  0.19494361    -0.30900
H1344       H  0.56647508  0.49378967  0.20261919     0.17500
C1345       C  0.97261276  0.58924670  0.11099414    -0.29900
N1346       N  0.50395787  0.61455783  0.10162670     0.14300
C1347       C  0.53569822  0.58987360  0.11012055    -0.29900
C1348       C  0.97383202  0.91534907  0.10737891    -0.30200
N1349       N  0.00525065  0.89001118  0.09906147     0.14800
H1350       H  0.94462999  0.90559112  0.10166464     0.17500
C1351       C  0.53683296  0.91356104  0.10954539    -0.30200
H1352       H  0.56590792  0.90176012  0.10572485     0.17500
H1353       H  0.56476509  0.60021822  0.10450964     0.17500
H1354       H  0.94554043  0.00547570  0.20327364     0.17500
H1355       H  0.94343819  0.60035081  0.10679775     0.17500
C1356       C  0.79458171  0.49885291  0.13757166     0.31400
C1357       C  0.71523423  0.00020604  0.13736883     0.31400
C1358       C  0.77501001  0.99921204  0.16675244    -0.04800
C1359       C  0.77562114  0.54549889  0.12411006    -0.05600
C1360       C  0.77405186  0.95470678  0.12286519    -0.05500
C1361       C  0.73484676  0.99776845  0.16666545    -0.04900
C1362       C  0.73569599  0.54498106  0.12360796    -0.05600
C1363       C  0.73408050  0.95484319  0.12284474    -0.05500
C1364       C  0.72349067  0.99524658  0.19445573    -0.30900
N1365       N  0.75500741  0.49896946  0.21106973     0.15600
C1366       C  0.78646817  0.50228537  0.19453770    -0.30900
H1367       H  0.81546188  0.50638665  0.20233689     0.17500
C1368       C  0.72387921  0.58605215  0.10855449    -0.29900
N1369       N  0.75521850  0.61250025  0.10048099     0.14300
C1370       C  0.78690239  0.58933380  0.11057144    -0.29900
C1371       C  0.72241193  0.91243547  0.10824467    -0.30200
N1372       N  0.75387262  0.88825429  0.09885029     0.14800
H1373       H  0.69328270  0.90054202  0.10392704     0.17500
C1374       C  0.78553822  0.91311404  0.10802159    -0.30200
H1375       H  0.81465982  0.90321166  0.10290239     0.17500
H1376       H  0.81595255  0.60178972  0.10654735     0.17500
H1377       H  0.69447018  0.99214141  0.20221898     0.17500
H1378       H  0.69473830  0.59488059  0.10272974     0.17500
C1379       C  0.96522719  0.99889051  0.40421963     0.31400
C1380       C  0.54443751  0.50014979  0.40441924     0.31400
C1381       C  0.98506617  0.99934644  0.37544946    -0.04800
C1382       C  0.98463823  0.54349511  0.41974161    -0.05600
C1383       C  0.98475173  0.95460578  0.41957806    -0.05500
C1384       C  0.52480165  0.00008720  0.37561178    -0.04900
C1385       C  0.52476603  0.54450541  0.41971287    -0.05600
C1386       C  0.52487830  0.95491796  0.41947109    -0.05500
C1387       C  0.53674096  0.50003713  0.34801600    -0.30900
N1388       N  0.00527160  0.49915993  0.33129237     0.15600
C1389       C  0.97352597  0.99873742  0.34765669    -0.30900
H1390       H  0.94438730  0.99800240  0.33985805     0.17500
C1391       C  0.53593965  0.58210832  0.43826194    -0.29900
N1392       N  0.50421931  0.60395475  0.44894391     0.14300
C1393       C  0.97291842  0.57940299  0.43880811    -0.29900
C1394       C  0.53639181  0.91689235  0.43744518    -0.30200
N1395       N  0.00484882  0.89374453  0.44809967     0.14800
H1396       H  0.56549659  0.90825333  0.44350804     0.17500
C1397       C  0.97335638  0.91766858  0.43836933    -0.30200
H1398       H  0.94436111  0.90935233  0.44496594     0.17500
H1399       H  0.94380457  0.58665960  0.44524868     0.17500
H1400       H  0.56599387  0.50045644  0.34057406     0.17500
H1401       H  0.56491757  0.59136782  0.44465876     0.17500
C1402       C  0.71531534  0.99916784  0.40417953     0.31400
C1403       C  0.79453566  0.49910206  0.40378973     0.31400
C1404       C  0.73478628  0.00073715  0.37528440    -0.04800
C1405       C  0.73539786  0.54270823  0.42012153    -0.05600
C1406       C  0.73459199  0.95387877  0.41878024    -0.05500
C1407       C  0.77452363  0.00075817  0.37513682    -0.04900
C1408       C  0.77551350  0.54317033  0.41976524    -0.05600
C1409       C  0.77471944  0.95352820  0.41839850    -0.05500
C1410       C  0.78605829  0.50228288  0.34745843    -0.30900
N1411       N  0.75435603  0.50310671  0.33095287     0.15600
C1412       C  0.72286178  0.00209636  0.34760769    -0.30900
H1413       H  0.69359532  0.00195474  0.34006441     0.17500
C1414       C  0.78729009  0.58142433  0.43770825    -0.29900
N1415       N  0.75583572  0.60376188  0.44851824     0.14300
C1416       C  0.72425553  0.57919776  0.43893325    -0.29900
C1417       C  0.78603100  0.91567247  0.43658572    -0.30200
N1418       N  0.75442729  0.89306862  0.44750410     0.14800
H1419       H  0.81509318  0.90694860  0.44271918     0.17500
C1420       C  0.72306754  0.91737825  0.43784058    -0.30200
H1421       H  0.69409187  0.90978774  0.44472805     0.17500
H1422       H  0.69529389  0.58700420  0.44555343     0.17500
H1423       H  0.81520793  0.50218273  0.33980437     0.17500
H1424       H  0.81644067  0.59088460  0.44355386     0.17500
O1425       O  0.91809721  0.79225995  0.02196535    -0.77100
C1426       C  0.00540702  0.85034169  0.07873409     0.83900
O1427       O  0.52602843  0.81487220  0.46336623    -0.78300
O1428       O  0.59240984  0.75028747  0.04485153    -0.79700
O1429       O  0.97950861  0.64951123  0.06053170    -0.79500
O1430       O  0.91601317  0.70811898  0.02162899    -0.78200
Zn1431     Zn  0.97293911  0.81109531  0.02303275     1.55700
O1432       O  0.52802147  0.68887149  0.08204269    -0.79600
Cd1433     Cd  0.97181696  0.68904280  0.02359987     1.59700
Cd1434     Cd  0.53461799  0.74965759  0.48710524     1.59600
O1435       O  0.98199865  0.64146624  0.49007754    -0.79600
O1436       O  0.00386790  0.75116238  0.02252292    -1.90100
Cd1437     Cd  0.53691161  0.75144166  0.05690626     1.59900
O1438       O  0.52487636  0.68351470  0.46419651    -0.79500
O1439       O  0.52964885  0.81517647  0.08111765    -0.78200
C1440       C  0.00474918  0.85285303  0.46782172     0.84400
C1441       C  0.89991497  0.75068270  0.02138912     0.84000
O1442       O  0.98178866  0.85194775  0.05825235    -0.77100
C1443       C  0.50353275  0.65317323  0.08068288     0.84800
O1444       O  0.98325764  0.85546908  0.48939364    -0.77200
C1445       C  0.50374602  0.64480741  0.46864800     0.85000
C1446       C  0.60888761  0.74930423  0.02105093     0.85300
O1447       O  0.59121334  0.74907441  0.49759996    -0.79600
O1448       O  0.66787274  0.78999746  0.02127525    -0.77100
C1449       C  0.75393887  0.84862831  0.07854362     0.83900
O1450       O  0.77596864  0.81456271  0.46306127    -0.78300
O1451       O  0.84228917  0.75170926  0.04500926    -0.79700
O1452       O  0.73093519  0.64776214  0.05945196    -0.79500
O1453       O  0.66609258  0.70586358  0.02120890    -0.78200
Zn1454     Zn  0.72247296  0.80982974  0.02244519     1.55700
O1455       O  0.77898273  0.68738041  0.08133909    -0.79600
Cd1456     Cd  0.72231771  0.68796026  0.02293048     1.59700
Cd1457     Cd  0.78520969  0.74965373  0.48689036     1.59600
O1458       O  0.73321259  0.64141191  0.48931604    -0.79600
O1459       O  0.75393892  0.75039056  0.02205773    -1.90100
Cd1460     Cd  0.78668960  0.75062225  0.05658827     1.59900
O1461       O  0.77680980  0.68317984  0.46393830    -0.79500
O1462       O  0.77817044  0.81349732  0.08101939    -0.78200
C1463       C  0.75430979  0.85224210  0.46731511     0.84400
C1464       C  0.64981181  0.74833121  0.02088629     0.84000
O1465       O  0.73064644  0.85053028  0.05786468    -0.77100
C1466       C  0.75491785  0.65127907  0.07964179     0.84800
O1467       O  0.73255496  0.85461072  0.48877314    -0.77200
C1468       C  0.75547557  0.64459029  0.46819082     0.85000
C1469       C  0.85902991  0.75152616  0.02131788     0.85300
O1470       O  0.84163020  0.75093067  0.49776592    -0.79600
C1471       C  0.83889603  0.49899574  0.40113918    -0.04000
C1472       C  0.86000769  0.54427259  0.39649137    -0.01100
C1473       C  0.90058404  0.54409537  0.39653496     0.03900
C1474       C  0.92086058  0.99874366  0.40152543    -0.04000
C1475       C  0.89978057  0.95343609  0.39680544    -0.01100
C1476       C  0.85919464  0.95367188  0.39630912     0.03900
C1477       C  0.84054298  0.58988418  0.38791864     0.38500
C1478       C  0.91931445  0.90771954  0.38866379     0.38500
C1479       C  0.83898229  0.90874804  0.38676245     0.36900
C1480       C  0.92093988  0.58936360  0.38770844     0.36900
N1481       N  0.82312691  0.87293860  0.37885604    -0.37900
N1482       N  0.93695652  0.62541294  0.38036296    -0.37900
N1483       N  0.93453043  0.87113841  0.38192034    -0.37300
N1484       N  0.82535567  0.62636795  0.38086315    -0.37300
C1485       C  0.58883124  0.00028440  0.40197023    -0.04000
C1486       C  0.61004448  0.54566320  0.39786690    -0.01100
C1487       C  0.65064309  0.54532272  0.39773256     0.03900
C1488       C  0.67088134  0.99963112  0.40184929    -0.04000
C1489       C  0.64956915  0.95465954  0.39671098    -0.01100
C1490       C  0.60899874  0.95507469  0.39654692     0.03900
C1491       C  0.59069052  0.59164764  0.38978954     0.38500
C1492       C  0.66880509  0.90912268  0.38789932     0.38500
C1493       C  0.58855101  0.91036867  0.38692877     0.36900
C1494       C  0.67094861  0.59105060  0.38960868     0.36900
N1495       N  0.57247787  0.87477617  0.37895440    -0.37900
N1496       N  0.68676535  0.62766497  0.38292773    -0.37900
N1497       N  0.68372513  0.87265221  0.38063325    -0.37300
N1498       N  0.57562816  0.62846066  0.38313105    -0.37300
C1499       C  0.75497608  0.50007707  0.24134120    -0.04000
C1500       C  0.76688317  0.54397025  0.25574938    -0.01100
C1501       C  0.76671264  0.54500547  0.28546367     0.03900
C1502       C  0.75428984  0.50235059  0.30071018    -0.04000
C1503       C  0.74245058  0.95851005  0.28632775    -0.00700
C1504       C  0.74292994  0.95728450  0.25664813     0.03900
C1505       C  0.77833517  0.58826092  0.23987092     0.38500
C1506       C  0.73078161  0.91441066  0.30227706     0.38500
C1507       C  0.73214910  0.91166745  0.24175589     0.36900
C1508       C  0.77859053  0.59003659  0.30049159     0.36900
N1509       N  0.72361764  0.87516306  0.22988023    -0.37900
N1510       N  0.78809762  0.62599411  0.31250443    -0.37900
N1511       N  0.72149781  0.87927299  0.31511100    -0.37300
N1512       N  0.78743424  0.62360723  0.22713881    -0.37300
C1513       C  0.83899904  0.49431342  0.13628031    -0.04000
C1514       C  0.85980728  0.50812823  0.11166474    -0.01100
C1515       C  0.90043291  0.50776722  0.11174944     0.03900
C1516       C  0.92093783  0.99433187  0.13657399    -0.04000
C1517       C  0.90002409  0.96383002  0.15593213    -0.01100
C1518       C  0.85938392  0.96359749  0.15567334     0.03900
C1519       C  0.84000035  0.51447737  0.08494783     0.38500
C1520       C  0.91953288  0.92614089  0.17269196     0.38500
C1521       C  0.83922984  0.92530122  0.17190096     0.36900
C1522       C  0.92042252  0.51284554  0.08505642     0.36900
N1523       N  0.82344277  0.89425153  0.18464364    -0.37900
N1524       N  0.93623854  0.51626394  0.06369714    -0.37900
N1525       N  0.93461767  0.89552056  0.18596612    -0.37300
N1526       N  0.82451420  0.51898521  0.06347503    -0.37300
C1527       C  0.67088146  0.00548902  0.13602572    -0.04000
C1528       C  0.65102693  0.53622349  0.15560487    -0.01100
C1529       C  0.61042176  0.53689485  0.15578119     0.03900
C1530       C  0.58914000  0.00721445  0.13624165    -0.04000
C1531       C  0.60922325  0.99451154  0.11123943    -0.01100
C1532       C  0.64981996  0.99339568  0.11115445     0.03900
C1533       C  0.67174793  0.57376732  0.17204251     0.38500
C1534       C  0.58892642  0.99127575  0.08450459     0.38500
C1535       C  0.66933823  0.98862455  0.08430476     0.36900
C1536       C  0.59132671  0.57481009  0.17249554     0.36900
N1537       N  0.68460298  0.98542827  0.06274006    -0.37900
N1538       N  0.57649697  0.60575423  0.18557372    -0.37900
N1539       N  0.57293294  0.98935055  0.06309620    -0.37300
N1540       N  0.68807965  0.60419428  0.18491819    -0.37300
C1541       C  0.00565929  0.49907287  0.30109535    -0.04000
C1542       C  0.50724500  0.54499625  0.28629504    -0.01100
C1543       C  0.50752149  0.54500460  0.25659949     0.03900
C1544       C  0.00649730  0.49905837  0.24182632    -0.04000
C1545       C  0.00572214  0.95308071  0.25664511    -0.01100
C1546       C  0.00512772  0.95309611  0.28635462     0.03900
C1547       C  0.50874414  0.59191232  0.30184172     0.38500
C1548       C  0.00583422  0.90611412  0.24114049     0.38500
C1549       C  0.00422820  0.90617601  0.30197195     0.36900
C1550       C  0.50905732  0.59198824  0.24108576     0.36900
N1551       N  0.00354033  0.86881288  0.31457604    -0.37900
N1552       N  0.51028819  0.62956935  0.22871052    -0.37900
N1553       N  0.00613683  0.86865483  0.22867970    -0.37300
N1554       N  0.51004722  0.62929229  0.31436471    -0.37300
C1555       C  0.54476353  0.50236207  0.63795304     0.31400
C1556       C  0.96541399  0.99938742  0.63812249     0.31400
C1557       C  0.52556302  0.99941337  0.66723144    -0.04800
C1558       C  0.52431355  0.54727695  0.62445759    -0.05600
C1559       C  0.52549488  0.95645709  0.62357301    -0.05500
C1560       C  0.98534135  0.99989290  0.66738207    -0.04900
C1561       C  0.98436998  0.54631065  0.62474412    -0.05600
C1562       C  0.98558372  0.95608162  0.62311631    -0.05500
C1563       C  0.97436801  0.00213356  0.69526776    -0.30900
N1564       N  0.00610471  0.49910001  0.71161397     0.15600
C1565       C  0.53738572  0.49663717  0.69494368    -0.30900
H1566       H  0.56647027  0.49379025  0.70261788     0.17500
C1567       C  0.97261266  0.58924688  0.61099416    -0.29900
N1568       N  0.50395799  0.61455793  0.60162667     0.14300
C1569       C  0.53569831  0.58987368  0.61012058    -0.29900
C1570       C  0.97383206  0.91534922  0.60737894    -0.30200
N1571       N  0.00525050  0.89001123  0.59906152     0.14800
H1572       H  0.94463017  0.90559162  0.60166474     0.17500
C1573       C  0.53683323  0.91356102  0.60954534    -0.30200
H1574       H  0.56590601  0.90176096  0.60572512     0.17500
H1575       H  0.56476569  0.60021819  0.60450924     0.17500
H1576       H  0.94554301  0.00547507  0.70327305     0.17500
H1577       H  0.94343794  0.60035110  0.60679776     0.17500
C1578       C  0.79458165  0.49885288  0.63757163     0.31400
C1579       C  0.71523427  0.00020609  0.63736880     0.31400
C1580       C  0.77501025  0.99921225  0.66675246    -0.04800
C1581       C  0.77562102  0.54549877  0.62410996    -0.05600
C1582       C  0.77405174  0.95470676  0.62286523    -0.05500
C1583       C  0.73484692  0.99776863  0.66666538    -0.04900
C1584       C  0.73569585  0.54498112  0.62360799    -0.05600
C1585       C  0.73408015  0.95484305  0.62284469    -0.05500
C1586       C  0.72349058  0.99524681  0.69445570    -0.30900
N1587       N  0.75500722  0.49896949  0.71106972     0.15600
C1588       C  0.78646834  0.50228547  0.69453770    -0.30900
H1589       H  0.81546003  0.50638561  0.70233637     0.17500
C1590       C  0.72387921  0.58605216  0.60855444    -0.29900
N1591       N  0.75521844  0.61250031  0.60048102     0.14300
C1592       C  0.78690251  0.58933393  0.61057151    -0.29900
C1593       C  0.72241235  0.91243554  0.60824480    -0.30200
N1594       N  0.75387205  0.88825436  0.59885032     0.14800
H1595       H  0.69327794  0.90053991  0.60392651     0.17500
C1596       C  0.78553825  0.91311411  0.60802161    -0.30200
H1597       H  0.81465870  0.90321228  0.60290247     0.17500
H1598       H  0.81595187  0.60178941  0.60654749     0.17500
H1599       H  0.69447162  0.99214169  0.70221840     0.17500
H1600       H  0.69473813  0.59488127  0.60272992     0.17500
C1601       C  0.96522725  0.99889051  0.90421969     0.31400
C1602       C  0.54443761  0.50014974  0.90441925     0.31400
C1603       C  0.98506611  0.99934619  0.87544951    -0.04800
C1604       C  0.98463794  0.54349497  0.91974165    -0.05600
C1605       C  0.98475164  0.95460569  0.91957803    -0.05500
C1606       C  0.52480169  0.00008703  0.87561186    -0.04900
C1607       C  0.52476612  0.54450537  0.91971283    -0.05600
C1608       C  0.52487838  0.95491791  0.91947109    -0.05500
C1609       C  0.53674103  0.50003717  0.84801589    -0.30900
N1610       N  0.00527242  0.49916002  0.83129232     0.15600
C1611       C  0.97352602  0.99873742  0.84765685    -0.30900
H1612       H  0.94438563  0.99800189  0.83985801     0.17500
C1613       C  0.53593957  0.58210821  0.93826197    -0.29900
N1614       N  0.50421921  0.60395456  0.94894401     0.14300
C1615       C  0.97291845  0.57940269  0.93880806    -0.29900
C1616       C  0.53639153  0.91689241  0.93744514    -0.30200
N1617       N  0.00484893  0.89374457  0.94809974     0.14800
H1618       H  0.56549798  0.90825279  0.94350831     0.17500
C1619       C  0.97335627  0.91766855  0.93836935    -0.30200
H1620       H  0.94436132  0.90935239  0.94496608     0.17500
H1621       H  0.94380151  0.58666006  0.94524923     0.17500
H1622       H  0.56599140  0.50045692  0.84057437     0.17500
H1623       H  0.56491743  0.59136779  0.94465881     0.17500
C1624       C  0.71531549  0.99916769  0.90417950     0.31400
C1625       C  0.79453567  0.49910207  0.90378972     0.31400
C1626       C  0.73478650  0.00073722  0.87528442    -0.04800
C1627       C  0.73539770  0.54270822  0.92012155    -0.05600
C1628       C  0.73459201  0.95387855  0.91878023    -0.05500
C1629       C  0.77452383  0.00075804  0.87513679    -0.04900
C1630       C  0.77551341  0.54317016  0.91976535    -0.05600
C1631       C  0.77471973  0.95352801  0.91839856    -0.05500
C1632       C  0.78605836  0.50228293  0.84745836    -0.30900
N1633       N  0.75435602  0.50310655  0.83095287     0.15600
C1634       C  0.72286173  0.00209631  0.84760771    -0.30900
H1635       H  0.69359658  0.00195459  0.84006494     0.17500
C1636       C  0.78729038  0.58142415  0.93770827    -0.29900
N1637       N  0.75583559  0.60376182  0.94851823     0.14300
C1638       C  0.72425569  0.57919765  0.93893324    -0.29900
C1639       C  0.78603062  0.91567252  0.93658559    -0.30200
N1640       N  0.75442743  0.89306853  0.94750405     0.14800
H1641       H  0.81509663  0.90694760  0.94271991     0.17500
C1642       C  0.72306793  0.91737827  0.93784042    -0.30200
H1643       H  0.69408956  0.90978681  0.94472824     0.17500
H1644       H  0.69529228  0.58700459  0.94555386     0.17500
H1645       H  0.81520715  0.50218207  0.83980442     0.17500
H1646       H  0.81643976  0.59088361  0.94355376     0.17500
O1647       O  0.91809724  0.79226005  0.52196541    -0.77100
C1648       C  0.00540717  0.85034180  0.57873417     0.83900
O1649       O  0.52602843  0.81487209  0.96336628    -0.78300
O1650       O  0.59240977  0.75028771  0.54485146    -0.79700
O1651       O  0.97950875  0.64951148  0.56053162    -0.79500
O1652       O  0.91601318  0.70811889  0.52162898    -0.78200
Zn1653     Zn  0.97293912  0.81109546  0.52303277     1.55700
O1654       O  0.52802159  0.68887167  0.58204269    -0.79600
Cd1655     Cd  0.97181706  0.68904293  0.52359981     1.59700
Cd1656     Cd  0.53461791  0.74965743  0.98710519     1.59600
O1657       O  0.98199847  0.64146607  0.99007762    -0.79600
O1658       O  0.00386811  0.75116257  0.52252298    -1.90100
Cd1659     Cd  0.53691162  0.75144183  0.55690629     1.59900
O1660       O  0.52487627  0.68351452  0.96419648    -0.79500
O1661       O  0.52964877  0.81517654  0.58111770    -0.78200
C1662       C  0.00474910  0.85285299  0.96782172     0.84400
C1663       C  0.89991501  0.75068270  0.52138918     0.84000
O1664       O  0.98178865  0.85194795  0.55825240    -0.77100
C1665       C  0.50353283  0.65317334  0.58068287     0.84800
O1666       O  0.98325767  0.85546907  0.98939364    -0.77200
C1667       C  0.50374602  0.64480725  0.96864805     0.85000
C1668       C  0.60888757  0.74930428  0.52105089     0.85300
O1669       O  0.59121341  0.74907423  0.99759998    -0.79600
O1670       O  0.66787271  0.78999754  0.52127520    -0.77100
C1671       C  0.75393896  0.84862822  0.57854366     0.83900
O1672       O  0.77596877  0.81456265  0.96306122    -0.78300
O1673       O  0.84228911  0.75170904  0.54500935    -0.79700
O1674       O  0.73093524  0.64776214  0.55945196    -0.79500
O1675       O  0.66609265  0.70586357  0.52120887    -0.78200
Zn1676     Zn  0.72247291  0.80982977  0.52244523     1.55700
O1677       O  0.77898272  0.68738042  0.58133923    -0.79600
Cd1678     Cd  0.72231779  0.68796039  0.52293046     1.59700
Cd1679     Cd  0.78520966  0.74965378  0.98689038     1.59600
O1680       O  0.73321269  0.64141172  0.98931604    -0.79600
O1681       O  0.75393905  0.75039053  0.52205778    -1.90100
Cd1682     Cd  0.78668950  0.75062220  0.55658830     1.59900
O1683       O  0.77680973  0.68318002  0.96393830    -0.79500
O1684       O  0.77817039  0.81349730  0.58101937    -0.78200
C1685       C  0.75430985  0.85224205  0.96731502     0.84400
C1686       C  0.64981182  0.74833122  0.52088626     0.84000
O1687       O  0.73064635  0.85053023  0.55786472    -0.77100
C1688       C  0.75491774  0.65127919  0.57964195     0.84800
O1689       O  0.73255500  0.85461069  0.98877304    -0.77200
C1690       C  0.75547577  0.64459026  0.96819077     0.85000
C1691       C  0.85902992  0.75152616  0.52131792     0.85300
O1692       O  0.84163008  0.75093063  0.99776599    -0.79600
C1693       C  0.83889605  0.49899560  0.90113916    -0.04000
C1694       C  0.86000771  0.54427247  0.89649141    -0.01100
C1695       C  0.90058406  0.54409517  0.89653486     0.03900
C1696       C  0.92086063  0.99874357  0.90152551    -0.04000
C1697       C  0.89978064  0.95343594  0.89680548    -0.01100
C1698       C  0.85919466  0.95367177  0.89630912     0.03900
C1699       C  0.84054314  0.58988409  0.88791879     0.38500
C1700       C  0.91931443  0.90771942  0.88866376     0.38500
C1701       C  0.83898233  0.90874790  0.88676239     0.36900
C1702       C  0.92093975  0.58936338  0.88770849     0.36900
N1703       N  0.82312705  0.87293844  0.87885594    -0.37900
N1704       N  0.93695649  0.62541284  0.88036293    -0.37900
N1705       N  0.93453043  0.87113810  0.88192039    -0.37300
N1706       N  0.82535569  0.62636795  0.88086332    -0.37300
C1707       C  0.58883127  0.00028431  0.90197025    -0.04000
C1708       C  0.61004455  0.54566327  0.89786692    -0.01100
C1709       C  0.65064309  0.54532280  0.89773247     0.03900
C1710       C  0.67088137  0.99963104  0.90184936    -0.04000
C1711       C  0.64956914  0.95465948  0.89671090    -0.01100
C1712       C  0.60899875  0.95507458  0.89654694     0.03900
C1713       C  0.59069054  0.59164766  0.88978962     0.38500
C1714       C  0.66880515  0.90912254  0.88789934     0.38500
C1715       C  0.58855100  0.91036842  0.88692860     0.36900
C1716       C  0.67094864  0.59105064  0.88960863     0.36900
N1717       N  0.57247796  0.87477604  0.87895431    -0.37900
N1718       N  0.68676528  0.62766495  0.88292758    -0.37900
N1719       N  0.68372502  0.87265197  0.88063330    -0.37300
N1720       N  0.57562821  0.62846067  0.88313114    -0.37300
C1721       C  0.75497600  0.50007718  0.74134118    -0.04000
C1722       C  0.76688309  0.54397038  0.75574937    -0.01100
C1723       C  0.76671259  0.54500547  0.78546367     0.03900
C1724       C  0.75428972  0.50235059  0.80071019    -0.04000
C1725       C  0.74245064  0.95850992  0.78632774    -0.00700
C1726       C  0.74292994  0.95728458  0.75664812     0.03900
C1727       C  0.77833504  0.58826077  0.73987092     0.38500
C1728       C  0.73078193  0.91441067  0.80227699     0.38500
C1729       C  0.73214921  0.91166755  0.74175577     0.36900
C1730       C  0.77859051  0.59003634  0.80049159     0.36900
N1731       N  0.72361781  0.87516325  0.72988012    -0.37900
N1732       N  0.78809776  0.62599391  0.81250445    -0.37900
N1733       N  0.72149824  0.87927299  0.81511099    -0.37300
N1734       N  0.78743412  0.62360726  0.72713884    -0.37300
C1735       C  0.83899909  0.49431346  0.63628027    -0.04000
C1736       C  0.85980731  0.50812824  0.61166469    -0.01100
C1737       C  0.90043291  0.50776745  0.61174942     0.03900
C1738       C  0.92093779  0.99433211  0.63657404    -0.04000
C1739       C  0.90002413  0.96383004  0.65593213    -0.01100
C1740       C  0.85938396  0.96359756  0.65567325     0.03900
C1741       C  0.84000033  0.51447751  0.58494788     0.38500
C1742       C  0.91953275  0.92614105  0.67269184     0.38500
C1743       C  0.83922979  0.92530132  0.67190091     0.36900
C1744       C  0.92042240  0.51284545  0.58505642     0.36900
N1745       N  0.82344288  0.89425131  0.68464347    -0.37900
N1746       N  0.93623866  0.51626392  0.56369724    -0.37900
N1747       N  0.93461758  0.89552045  0.68596599    -0.37300
N1748       N  0.82451420  0.51898540  0.56347506    -0.37300
C1749       C  0.67088152  0.00548916  0.63602570    -0.04000
C1750       C  0.65102702  0.53622349  0.65560484    -0.01100
C1751       C  0.61042180  0.53689491  0.65578112     0.03900
C1752       C  0.58914002  0.00721450  0.63624168    -0.04000
C1753       C  0.60922333  0.99451146  0.61123946    -0.01100
C1754       C  0.64982003  0.99339555  0.61115451     0.03900
C1755       C  0.67174808  0.57376753  0.67204236     0.38500
C1756       C  0.58892637  0.99127580  0.58450461     0.38500
C1757       C  0.66933825  0.98862440  0.58430468     0.36900
C1758       C  0.59132667  0.57481000  0.67249542     0.36900
N1759       N  0.68460279  0.98542811  0.56274003    -0.37900
N1760       N  0.57649712  0.60575444  0.68557360    -0.37900
N1761       N  0.57293300  0.98935065  0.56309616    -0.37300
N1762       N  0.68807969  0.60419447  0.68491799    -0.37300
C1763       C  0.00565935  0.49907298  0.80109531    -0.04000
C1764       C  0.50724533  0.54499626  0.78629506    -0.01100
C1765       C  0.50752188  0.54500470  0.75659949     0.03900
C1766       C  0.00649737  0.49905852  0.74182633    -0.04000
C1767       C  0.00572191  0.95308078  0.75664514    -0.01100
C1768       C  0.00512737  0.95309621  0.78635457     0.03900
C1769       C  0.50874488  0.59191218  0.80184179     0.38500
C1770       C  0.00583378  0.90611426  0.74114055     0.38500
C1771       C  0.00422775  0.90617596  0.80197188     0.36900
C1772       C  0.50905794  0.59198830  0.74108585     0.36900
N1773       N  0.00353953  0.86881309  0.81457608    -0.37900
N1774       N  0.51028898  0.62956951  0.72871060    -0.37900
N1775       N  0.00613615  0.86865498  0.72867966    -0.37300
N1776       N  0.51004822  0.62929226  0.81436478    -0.37300
loop_ 
_geom_bond_atom_site_label_1 
_geom_bond_atom_site_label_2 
_geom_bond_distance 
_geom_bond_site_symmetry_2 
_ccdc_geom_bond_type 
C1            C4   1.534       .  S
C1          C447   1.544   1_545  S
C1          C449   1.544   1_545  S
C1          C642   1.558       .  S
C2            C6   1.550       .  S
C2            C8   1.531       .  S
C2          C184   1.560       .  S
C2          C451   1.542       .  S
C3          C445   1.544       .  S
C3          C455   1.377       .  A
C3          C894   1.406   1_455  A
C4           C15   1.375       .  A
C4          C895   1.396   1_455  A
C5          C445   1.544       .  S
C5           C19   1.381       .  A
C5          C896   1.395   1_455  A
C6            C9   1.378       .  A
C6          C891   1.406       .  A
C7          C446   1.542   1_545  S
C7           C13   1.378       .  A
C7          C892   1.396       .  A
C8           C16   1.373       .  A
C8          C893   1.395       .  A
C9           H22   1.082       .  S
C9          N454   1.354       .  A
N10         C453   1.354   1_565  A
N10         C899   1.353       .  A
N10         C212   1.432       .  S
C11         C447   1.377       .  A
C11          H12   1.082       .  S
C11         N898   1.353       .  A
C13          H23   1.082       .  S
C13         N902   1.355       .  A
N14          C15   1.354       .  A
N14         C901   1.355   1_455  A
N14         C111   1.426       .  S
C15          H21   1.084       .  S
C16          H18   1.084       .  S
C16          N17   1.353       .  A
N17         C907   1.356       .  A
N17          C94   1.428       .  S
C19          H20   1.082       .  S
C19         N905   1.356       .  A
C24          C27   1.546   1_565  S
C24         C181   1.560       .  S
C24         C470   1.544       .  S
C24         C472   1.535       .  S
C25          C29   1.548       .  S
C25          C31   1.542       .  S
C25         C195   1.559       .  S
C25         C474   1.528       .  S
C26         C468   1.544       .  S
C26          C29   1.404       .  A
C26         C478   1.377       .  A
C27          C38   1.383       .  A
C27          C30   1.395       .  A
C28         C468   1.535       .  S
C28          C42   1.374       .  A
C28          C31   1.397       .  A
C29          C32   1.378       .  A
C30         C469   1.528       .  S
C30          C36   1.369       .  A
C31          C39   1.380       .  A
C32          H45   1.082       .  S
C32         N477   1.355       .  A
N33          C34   1.354   1_565  A
N33         C476   1.355       .  A
N33         C167   1.435   1_565  S
C34         C470   1.377   1_545  A
C34          H35   1.082       .  S
C36          H46   1.082       .  S
C36          N37   1.351       .  A
N37          C38   1.358       .  A
N37         C134   1.426       .  S
C38          H44   1.082       .  S
C39          H41   1.082       .  S
C39          N40   1.355       .  A
N40          C42   1.354       .  A
N40         C117   1.426       .  S
C42          H43   1.082       .  S
C47          C49   1.531       .  S
C47          C51   1.545       .  S
C47         C142   1.555       .  S
C47         C494   1.545       .  S
C48          C53   1.551       .  S
C48         C496   1.526       .  S
C48         C498   1.550   1_545  S
C48         C597   1.556       .  S
C49          C57   1.376       .  A
C49         C940   1.389       .  A
C50         C491   1.545   1_545  S
C50          C61   1.380       .  A
C50         C941   1.402       .  A
C51          C65   1.380       .  A
C51         C942   1.402       .  A
C52         C492   1.526       .  S
C52         C937   1.389   1_455  A
C52         C499   1.374       .  A
C53          C59   1.383       .  A
C53         C938   1.403   1_455  A
C54         C492   1.550       .  S
C54          C62   1.382       .  A
C54         C939   1.402   1_455  A
C55         C496   1.374       .  A
C55          H68   1.082       .  S
C55         N944   1.354   1_545  A
N56         C943   1.354   1_565  A
N56         C501   1.356       .  A
N56         C209   1.431       .  S
C57          H58   1.082       .  S
C57         N500   1.356       .  A
C59          H69   1.082       .  S
C59          N60   1.356       .  A
N60         C949   1.355   1_455  A
N60         C113   1.432       .  S
C61          H67   1.082       .  S
C61         N948   1.355       .  A
C62          H64   1.083       .  S
C62         N951   1.355       .  A
N63          C65   1.356       .  A
N63         C950   1.355       .  A
N63         C108   1.432       .  S
C65          H66   1.082       .  S
C70          C72   1.531       .  S
C70          C74   1.546       .  S
C70         C156   1.557       .  S
C70         C517   1.543       .  S
C71          C76   1.551   1_565  S
C71         C139   1.556       .  S
C71         C519   1.526   1_565  S
C71         C521   1.551       .  S
C72          C80   1.375       .  A
C72          C75   1.389       .  A
C73         C514   1.543   1_545  S
C73          C84   1.377       .  A
C73          C76   1.402       .  A
C74          C88   1.382       .  A
C74          C77   1.403       .  A
C75         C515   1.526       .  S
C75         C522   1.374       .  A
C76          C82   1.384       .  A
C77         C515   1.551       .  S
C77          C85   1.383       .  A
C78         C519   1.374       .  A
C78          H91   1.082       .  S
C78          N79   1.355       .  A
N79         C524   1.356       .  A
N79         C170   1.433       .  S
C80          H81   1.083       .  S
C80         N523   1.356       .  A
C82          H92   1.082       .  S
C82          N83   1.356       .  A
N83          C84   1.354       .  A
N83         C136   1.431       .  S
C84          H90   1.083       .  S
C85          H87   1.083       .  S
C85          N86   1.355       .  A
N86          C88   1.356       .  A
N86         C131   1.433       .  S
C88          H89   1.082       .  S
O93         C109   1.268       .  A
O93         Zn99   1.977       .  S
C94         O110   1.273       .  A
C94         O995   1.272       .  A
O95         C996   1.277       .  A
O95        Cd102   2.087       .  S
O96         C114   1.268       .  A
O96        Cd105   2.024       .  S
O97         C999   1.273       .  A
O97        Cd101   2.058       .  S
O98         C109   1.267       .  A
O98        Cd101   2.022       .  S
Zn99        O110   2.013       .  S
Zn99        O334   2.012   1_554  S
Zn99        O104   1.933       .  S
O100        C111   1.272       .  A
O100       Cd105   2.064       .  S
Cd101       O325   2.064   1_554  S
Cd101       O104   1.985       .  S
Cd102       O106   2.090       .  S
Cd102       O115   2.038       .  S
Cd102      O1214   1.996       .  S
O103       C1001   1.273       .  A
O103       Cd323   2.064       .  S
O104      Cd1212   1.996   1_554  S
O104       Cd993   1.994       .  S
Cd105       O107   2.064       .  S
Cd105       O992   1.994       .  S
O106        C113   1.277       .  A
O107        C982   1.272       .  A
C108        O112   1.273       .  A
C108        O983   1.277       .  A
C109        C137   1.429       .  S
C111        O985   1.273   1_455  A
O112       Zn321   2.012       .  S
C113        O991   1.273   1_455  A
C114        O337   1.270   1_554  A
C114        C132   1.431       .  S
O115        C336   1.270       .  A
O116        C132   1.268       .  A
O116       Zn122   1.975       .  S
C117        O133   1.273       .  A
C117        O130   1.271       .  A
O118        C131   1.277       .  A
O118       Cd125   2.086       .  S
O119        C137   1.267       .  A
O119       Cd128   2.021       .  S
O120        C134   1.273       .  A
O120       Cd124   2.055       .  S
O121        C132   1.268       .  A
O121       Cd124   2.028       .  S
Zn122       O133   2.015       .  S
Zn122       O357   2.018   1_554  S
Zn122       O127   1.933       .  S
O123        C134   1.271       .  A
O123       Cd128   2.063       .  S
Cd124       O348   2.056   1_554  S
Cd124       O127   1.983       .  S
Cd125       O129   2.092       .  S
Cd125       O138   2.037       .  S
Cd125       O349   1.996       .  S
O126        C136   1.272       .  A
O126       Cd346   2.056       .  S
O127       Cd128   1.994       .  S
O127       Cd347   1.996   1_554  S
Cd128       O130   2.057       .  S
O129        C136   1.277       .  A
C131        O135   1.273       .  A
O135       Zn344   2.018       .  S
C137        O360   1.269   1_554  A
O138        C359   1.269       .  A
C139        C140   1.421   1_565  A
C139        C588   1.422       .  A
C140        C141   1.418       .  A
C140        C145   1.452       .  S
C141        C586   1.422   1_545  A
C141        C148   1.452       .  S
C142        C143   1.422       .  A
C142        C585   1.422       .  A
C143        C144   1.419       .  A
C143        C146   1.452       .  S
C144        C583   1.422       .  A
C144        C147   1.452       .  S
C145        N152   1.158       .  T
C146        N151   1.158       .  T
C147        N149   1.158       .  T
C148        N150   1.158       .  T
C153        C492   1.556       .  S
C153        C158   1.422       .  A
C153        C598   1.422       .  A
C154        C155   1.419       .  A
C154        C597   1.422       .  A
C154        C159   1.452       .  S
C155        C600   1.423   1_545  A
C155        C162   1.452       .  S
C156        C157   1.422       .  A
C156        C599   1.423       .  A
C157        C158   1.418       .  A
C157        C160   1.452       .  S
C158        C161   1.452       .  S
C159        N166   1.158       .  T
C160        N165   1.158       .  T
C161        N163   1.158       .  T
C162        N164   1.158       .  T
C167        C168   1.410       .  A
C167        C616   1.409   1_545  A
C168        C169   1.408       .  A
C168        C173   1.449       .  S
C169        C170   1.408       .  A
C169        C176   1.449       .  S
C170        C615   1.407   1_545  A
C171        C172   1.407       .  A
C171        C614   1.407       .  A
C171        C174   1.449       .  S
C172        C611   1.409       .  A
C172        C175   1.448       .  S
C173        N180   1.157       .  T
C174        N179   1.157       .  T
C175        N177   1.157       .  T
C176        N178   1.157       .  T
C181        C182   1.422   1_565  A
C181        C630   1.422       .  A
C182        C183   1.420       .  A
C182        C187   1.451       .  S
C183        C628   1.423   1_545  A
C183        C190   1.452       .  S
C184        C185   1.422       .  A
C184        C627   1.423       .  A
C185        C186   1.420       .  A
C185        C188   1.451       .  S
C186        C625   1.422       .  A
C186        C189   1.452       .  S
C187        N194   1.158       .  T
C188        N193   1.157       .  T
C189        N191   1.158       .  T
C190        N192   1.158       .  T
C195        C200   1.423       .  A
C195        C640   1.423       .  A
C196        C197   1.420       .  A
C196        C639   1.423       .  A
C196        C201   1.452       .  S
C197        C642   1.420       .  A
C197        C204   1.451       .  S
C198        C445   1.558       .  S
C198        C199   1.421       .  A
C198        C641   1.420       .  A
C199        C200   1.420       .  A
C199        C202   1.452       .  S
C200        C203   1.452       .  S
C201        N208   1.158       .  T
C202        N207   1.158       .  T
C203        N205   1.158       .  T
C204        N206   1.157       .  T
C209       C1098   1.406   1_565  A
C209        C658   1.407       .  A
C210        C211   1.407       .  A
C210       C1097   1.406   1_545  A
C210        C215   1.448       .  S
C211       C1100   1.407   1_545  A
C211        C218   1.448       .  S
C212       C1099   1.407   1_565  A
C212        C657   1.407       .  A
C213        C214   1.408       .  A
C213        C656   1.407       .  A
C213        C216   1.448       .  S
C214        C653   1.407       .  A
C214        C217   1.448       .  S
C215        N222   1.157       .  T
C216        N221   1.157       .  T
C217        N219   1.157       .  T
C218        N220   1.157       .  T
C223        C669   1.544   1_545  S
C223        C671   1.544   1_545  S
C223        C226   1.534       .  S
C223        C864   1.558       .  S
C224        C228   1.550       .  S
C224        C230   1.531       .  S
C224        C673   1.542       .  S
C224        C406   1.560       .  S
C225        C667   1.544       .  S
C225        C677   1.377       .  A
C225       C1116   1.406   1_455  A
C226        C237   1.375       .  A
C226       C1117   1.396   1_455  A
C227        C667   1.544       .  S
C227        C241   1.381       .  A
C227       C1118   1.395   1_455  A
C228       C1113   1.406       .  A
C228        C231   1.378       .  A
C229        C668   1.542   1_545  S
C229       C1114   1.396       .  A
C229        C235   1.378       .  A
C230       C1115   1.395       .  A
C230        C238   1.373       .  A
C231        H244   1.082       .  S
C231        N676   1.354       .  A
N232        C675   1.354   1_565  A
N232       C1121   1.353       .  A
N232        C434   1.432       .  S
C233        C669   1.377       .  A
C233        H234   1.082       .  S
C233       N1120   1.353       .  A
C235        H245   1.082       .  S
C235       N1124   1.355       .  A
N236       C1123   1.355   1_455  A
N236        C237   1.354       .  A
N236        C333   1.426       .  S
C237        H243   1.084       .  S
C238        H240   1.084       .  S
C238        N239   1.353       .  A
N239       C1129   1.356       .  A
N239        C316   1.428       .  S
C241        H242   1.082       .  S
C241       N1127   1.356       .  A
C246        C692   1.544       .  S
C246        C694   1.535       .  S
C246        C249   1.546   1_565  S
C246        C403   1.560       .  S
C247        C251   1.548       .  S
C247        C253   1.542       .  S
C247        C696   1.528       .  S
C247        C417   1.559       .  S
C248        C690   1.544       .  S
C248        C700   1.377       .  A
C248        C251   1.404       .  A
C249        C260   1.383       .  A
C249        C252   1.395       .  A
C250        C690   1.535       .  S
C250        C264   1.374       .  A
C250        C253   1.397       .  A
C251        C254   1.378       .  A
C252        C691   1.528       .  S
C252        C258   1.369       .  A
C253        C261   1.380       .  A
C254        H267   1.082       .  S
C254        N699   1.355       .  A
N255        C698   1.355       .  A
N255        C256   1.354   1_565  A
N255        C389   1.435   1_565  S
C256        C692   1.377   1_545  A
C256        H257   1.082       .  S
C258        H268   1.082       .  S
C258        N259   1.351       .  A
N259        C260   1.358       .  A
N259        C356   1.426       .  S
C260        H266   1.082       .  S
C261        H263   1.082       .  S
C261        N262   1.355       .  A
N262        C264   1.354       .  A
N262        C339   1.426       .  S
C264        H265   1.082       .  S
C269        C271   1.531       .  S
C269        C273   1.545       .  S
C269        C716   1.545       .  S
C269        C364   1.555       .  S
C270        C718   1.526       .  S
C270        C720   1.550   1_545  S
C270        C275   1.551       .  S
C270        C819   1.556       .  S
C271        C279   1.376       .  A
C271       C1162   1.389       .  A
C272        C713   1.545   1_545  S
C272        C283   1.380       .  A
C272       C1163   1.403       .  A
C273        C287   1.380       .  A
C273       C1164   1.402       .  A
C274        C714   1.526       .  S
C274       C1159   1.389   1_455  A
C274        C721   1.374       .  A
C275       C1160   1.403   1_455  A
C275        C281   1.383       .  A
C276        C714   1.550       .  S
C276       C1161   1.402   1_455  A
C276        C284   1.382       .  A
C277        C718   1.374       .  A
C277        H290   1.082       .  S
C277       N1166   1.354   1_545  A
N278       C1165   1.354   1_565  A
N278        C723   1.356       .  A
N278        C431   1.431       .  S
C279        H280   1.082       .  S
C279        N722   1.356       .  A
C281        H291   1.082       .  S
C281        N282   1.356       .  A
N282       C1171   1.355   1_455  A
N282        C335   1.432       .  S
C283        H289   1.083       .  S
C283       N1170   1.355       .  A
C284        H286   1.083       .  S
C284       N1173   1.355       .  A
N285       C1172   1.355       .  A
N285        C287   1.356       .  A
N285        C330   1.432       .  S
C287        H288   1.082       .  S
C292        C294   1.531       .  S
C292        C296   1.546       .  S
C292        C739   1.543       .  S
C292        C378   1.557       .  S
C293        C741   1.526   1_565  S
C293        C743   1.551       .  S
C293        C298   1.551   1_565  S
C293        C361   1.556       .  S
C294        C302   1.375       .  A
C294        C297   1.389       .  A
C295        C736   1.543   1_545  S
C295        C306   1.377       .  A
C295        C298   1.402       .  A
C296        C310   1.382       .  A
C296        C299   1.403       .  A
C297        C737   1.526       .  S
C297        C744   1.374       .  A
C298        C304   1.384       .  A
C299        C737   1.551       .  S
C299        C307   1.383       .  A
C300        C741   1.374       .  A
C300        H313   1.083       .  S
C300        N301   1.355       .  A
N301        C746   1.356       .  A
N301        C392   1.433       .  S
C302        H303   1.082       .  S
C302        N745   1.356       .  A
C304        H314   1.082       .  S
C304        N305   1.356       .  A
N305        C306   1.354       .  A
N305        C358   1.431       .  S
C306        H312   1.083       .  S
C307        H309   1.083       .  S
C307        N308   1.355       .  A
N308        C310   1.356       .  A
N308        C353   1.433       .  S
C310        H311   1.082       .  S
O315        C331   1.268       .  A
O315       Zn321   1.977       .  S
C316        O332   1.273       .  A
C316       O1217   1.272       .  A
O317       C1218   1.277       .  A
O317       Cd324   2.087       .  S
O318        C336   1.268       .  A
O318       Cd327   2.024       .  S
O319       C1221   1.273       .  A
O319       Cd323   2.058       .  S
O320        C331   1.267       .  A
O320       Cd323   2.022       .  S
Zn321       O332   2.013       .  S
Zn321       O326   1.933       .  S
O322        C333   1.272       .  A
O322       Cd327   2.064       .  S
Cd323       O326   1.985       .  S
Cd324       O328   2.090       .  S
Cd324       O337   2.038       .  S
Cd324       O992   1.996   1_556  S
O325       C1223   1.273       .  A
O326       Cd990   1.996       .  S
O326      Cd1215   1.994       .  S
Cd327       O329   2.064       .  S
Cd327      O1214   1.994       .  S
O328        C335   1.277       .  A
O329       C1204   1.272       .  A
C330       O1205   1.277       .  A
C330        O334   1.273       .  A
C331        C359   1.429       .  S
C333       O1207   1.273   1_455  A
C335       O1213   1.273   1_455  A
C336        C354   1.431       .  S
O338        C354   1.268       .  A
O338       Zn344   1.975       .  S
C339        O355   1.273       .  A
C339        O352   1.271       .  A
O340        C353   1.277       .  A
O340       Cd347   2.086       .  S
O341        C359   1.267       .  A
O341       Cd350   2.021       .  S
O342        C356   1.273       .  A
O342       Cd346   2.055       .  S
O343        C354   1.268       .  A
O343       Cd346   2.028       .  S
Zn344       O355   2.015       .  S
Zn344       O349   1.933       .  S
O345        C356   1.271       .  A
O345       Cd350   2.063       .  S
Cd346       O349   1.983       .  S
Cd347       O351   2.092       .  S
Cd347       O360   2.037       .  S
O348        C358   1.272       .  A
O349       Cd350   1.994       .  S
Cd350       O352   2.057       .  S
O351        C358   1.277       .  A
C353        O357   1.273       .  A
C361        C362   1.421   1_565  A
C361        C810   1.422       .  A
C362        C363   1.418       .  A
C362        C367   1.452       .  S
C363        C808   1.422   1_545  A
C363        C370   1.452       .  S
C364        C807   1.422       .  A
C364        C365   1.422       .  A
C365        C366   1.419       .  A
C365        C368   1.452       .  S
C366        C805   1.422       .  A
C366        C369   1.452       .  S
C367        N374   1.158       .  T
C368        N373   1.158       .  T
C369        N371   1.158       .  T
C370        N372   1.158       .  T
C375        C714   1.556       .  S
C375        C820   1.422       .  A
C375        C380   1.422       .  A
C376        C819   1.422       .  A
C376        C377   1.419       .  A
C376        C381   1.452       .  S
C377        C822   1.423   1_545  A
C377        C384   1.452       .  S
C378        C821   1.423       .  A
C378        C379   1.422       .  A
C379        C380   1.418       .  A
C379        C382   1.452       .  S
C380        C383   1.452       .  S
C381        N388   1.158       .  T
C382        N387   1.158       .  T
C383        N385   1.158       .  T
C384        N386   1.158       .  T
C389        C390   1.410       .  A
C389        C838   1.409   1_545  A
C390        C391   1.408       .  A
C390        C395   1.449       .  S
C391        C392   1.408       .  A
C391        C398   1.449       .  S
C392        C837   1.407   1_545  A
C393        C836   1.407       .  A
C393        C394   1.407       .  A
C393        C396   1.449       .  S
C394        C833   1.409       .  A
C394        C397   1.448       .  S
C395        N402   1.157       .  T
C396        N401   1.157       .  T
C397        N399   1.157       .  T
C398        N400   1.157       .  T
C403        C404   1.422   1_565  A
C403        C852   1.422       .  A
C404        C405   1.420       .  A
C404        C409   1.451       .  S
C405        C850   1.423   1_545  A
C405        C412   1.452       .  S
C406        C849   1.423       .  A
C406        C407   1.422       .  A
C407        C408   1.420       .  A
C407        C410   1.451       .  S
C408        C847   1.422       .  A
C408        C411   1.452       .  S
C409        N416   1.158       .  T
C410        N415   1.157       .  T
C411        N413   1.158       .  T
C412        N414   1.158       .  T
C417        C862   1.423       .  A
C417        C422   1.423       .  A
C418        C861   1.423       .  A
C418        C419   1.420       .  A
C418        C423   1.452       .  S
C419        C864   1.420       .  A
C419        C426   1.451       .  S
C420        C667   1.558       .  S
C420        C863   1.420       .  A
C420        C421   1.421       .  A
C421        C422   1.420       .  A
C421        C424   1.452       .  S
C422        C425   1.452       .  S
C423        N430   1.158       .  T
C424        N429   1.158       .  T
C425        N427   1.158       .  T
C426        N428   1.157       .  T
C431       C1320   1.406   1_565  A
C431        C880   1.407       .  A
C432       C1319   1.406   1_545  A
C432        C433   1.407       .  A
C432        C437   1.448       .  S
C433       C1322   1.407   1_545  A
C433        C440   1.448       .  S
C434       C1321   1.407   1_565  A
C434        C879   1.407       .  A
C435        C878   1.407       .  A
C435        C436   1.408       .  A
C435        C438   1.448       .  S
C436        C875   1.407       .  A
C436        C439   1.448       .  S
C437        N444   1.157       .  T
C438        N443   1.157       .  T
C439        N441   1.157       .  T
C440        N442   1.157       .  T
C445        C448   1.534       .  S
C446        C450   1.550       .  S
C446        C452   1.531       .  S
C446        C628   1.560       .  S
C447       C1338   1.406   1_455  A
C448        C459   1.375       .  A
C448       C1339   1.396   1_455  A
C449        C463   1.381       .  A
C449       C1340   1.395   1_455  A
C450       C1335   1.406       .  A
C450        C453   1.378   1_565  A
C451       C1336   1.396       .  A
C451        C457   1.378       .  A
C452       C1337   1.395       .  A
C452        C460   1.373       .  A
C453        H466   1.082       .  S
N454       C1343   1.353       .  A
N454        C656   1.432       .  S
C455        H456   1.082       .  S
C455       N1342   1.353       .  A
C457        H467   1.082       .  S
C457       N1346   1.355       .  A
N458       C1345   1.355   1_455  A
N458        C459   1.354       .  A
N458        C555   1.426       .  S
C459        H465   1.084       .  S
C460        H462   1.084       .  S
C460        N461   1.353       .  A
N461       C1351   1.356       .  A
N461        C538   1.428       .  S
C463        H464   1.082       .  S
C463       N1349   1.356       .  A
C468        C471   1.546       .  S
C468        C625   1.560       .  S
C469        C473   1.548   1_545  S
C469        C475   1.542   1_545  S
C469        C639   1.559       .  S
C470        C473   1.404       .  A
C471        C482   1.383       .  A
C471        C474   1.395       .  A
C472        C486   1.374       .  A
C472        C475   1.397       .  A
C473        C476   1.378       .  A
C474        C480   1.369       .  A
C475        C483   1.380       .  A
C476        H489   1.082       .  S
N477        C478   1.354       .  A
N477        C611   1.435       .  S
C478        H479   1.082       .  S
C480        H490   1.082       .  S
C480        N481   1.351       .  A
N481        C482   1.358       .  A
N481        C578   1.426       .  S
C482        H488   1.082       .  S
C483        H485   1.082       .  S
C483        N484   1.355       .  A
N484        C486   1.354       .  A
N484        C561   1.426       .  S
C486        H487   1.082       .  S
C491        C493   1.531       .  S
C491        C495   1.545       .  S
C491        C586   1.555       .  S
C492        C497   1.551       .  S
C493        C501   1.376       .  A
C493       C1384   1.389   1_565  A
C494        C505   1.380       .  A
C494       C1385   1.402       .  A
C495        C509   1.380       .  A
C495       C1386   1.402       .  A
C496       C1381   1.389   1_445  A
C497       C1382   1.402   1_455  A
C497        C503   1.383       .  A
C498       C1383   1.402   1_455  A
C498        C506   1.382       .  A
C499        H512   1.082       .  S
C499       N1388   1.354       .  A
N500       C1387   1.354       .  A
N500        C653   1.431       .  S
C501        H502   1.082       .  S
C503        H513   1.082       .  S
C503        N504   1.356       .  A
N504       C1393   1.355   1_455  A
N504        C557   1.432       .  S
C505        H511   1.082       .  S
C505       N1392   1.355       .  A
C506        H508   1.083       .  S
C506       N1395   1.355       .  A
N507       C1394   1.355       .  A
N507        C509   1.356       .  A
N507        C552   1.432       .  S
C509        H510   1.082       .  S
C514        C516   1.531   1_565  S
C514        C518   1.546       .  S
C514        C600   1.557       .  S
C515        C520   1.551       .  S
C515        C583   1.556       .  S
C516        C524   1.375       .  A
C516        C519   1.389       .  A
C517        C528   1.377       .  A
C517        C520   1.402       .  A
C518        C532   1.382       .  A
C518        C521   1.403       .  A
C520        C526   1.384       .  A
C521        C529   1.383       .  A
C522        H535   1.083       .  S
C522        N523   1.355       .  A
N523        C614   1.433       .  S
C524        H525   1.082       .  S
C526        H536   1.082       .  S
C526        N527   1.356       .  A
N527        C528   1.354       .  A
N527        C580   1.431       .  S
C528        H534   1.083       .  S
C529        H531   1.083       .  S
C529        N530   1.355       .  A
N530        C532   1.356       .  A
N530        C575   1.433       .  S
C532        H533   1.082       .  S
O537        C553   1.268       .  A
O537       Zn543   1.977       .  S
C538        O554   1.273       .  A
C538       O1439   1.272       .  A
O539       C1440   1.277       .  A
O539       Cd546   2.087       .  S
O540        C558   1.268       .  A
O540       Cd549   2.024       .  S
O541       C1443   1.273       .  A
O541       Cd545   2.058       .  S
O542        C553   1.267       .  A
O542       Cd545   2.022       .  S
Zn543       O554   2.013       .  S
Zn543       O778   2.012   1_554  S
Zn543       O548   1.933       .  S
O544        C555   1.272       .  A
O544       Cd549   2.064       .  S
Cd545       O769   2.064   1_554  S
Cd545       O548   1.985       .  S
Cd546       O550   2.090       .  S
Cd546       O559   2.038       .  S
Cd546      O1658   1.996       .  S
O547       C1445   1.273       .  A
O547       Cd767   2.064       .  S
O548      Cd1656   1.996   1_554  S
O548      Cd1437   1.994       .  S
Cd549       O551   2.064       .  S
Cd549      O1436   1.994       .  S
O550        C557   1.277       .  A
O551       C1426   1.272       .  A
C552       O1427   1.277       .  A
C552        O556   1.273       .  A
C553        C581   1.429       .  S
C555       O1429   1.273   1_455  A
O556       Zn765   2.012       .  S
C557       O1435   1.273   1_455  A
C558        O781   1.270   1_554  A
C558        C576   1.431       .  S
O559        C780   1.270       .  A
O560        C576   1.268       .  A
O560       Zn566   1.975       .  S
C561        O577   1.273       .  A
C561        O574   1.271       .  A
O562        C575   1.277       .  A
O562       Cd569   2.086       .  S
O563        C581   1.267       .  A
O563       Cd572   2.021       .  S
O564        C578   1.273       .  A
O564       Cd568   2.055       .  S
O565        C576   1.268       .  A
O565       Cd568   2.028       .  S
Zn566       O577   2.015       .  S
Zn566       O801   2.018   1_554  S
Zn566       O571   1.933       .  S
O567        C578   1.271       .  A
O567       Cd572   2.063       .  S
Cd568       O792   2.056   1_554  S
Cd568       O571   1.983       .  S
Cd569       O573   2.092       .  S
Cd569       O582   2.037       .  S
Cd569       O793   1.996       .  S
O570        C580   1.272       .  A
O570       Cd790   2.056       .  S
O571       Cd791   1.996   1_554  S
O571       Cd572   1.994       .  S
Cd572       O574   2.057       .  S
O573        C580   1.277       .  A
C575        O579   1.273       .  A
O579       Zn788   2.018       .  S
C581        O804   1.269   1_554  A
O582        C803   1.269       .  A
C583        C584   1.421       .  A
C584        C585   1.418       .  A
C584        C589   1.452       .  S
C585        C592   1.452       .  S
C586        C587   1.422       .  A
C587        C588   1.419       .  A
C587        C590   1.452       .  S
C588        C591   1.452       .  S
C589        N596   1.158       .  T
C590        N595   1.158       .  T
C591        N593   1.158       .  T
C592        N594   1.158       .  T
C597        C602   1.422   1_545  A
C598        C599   1.419       .  A
C598        C603   1.452       .  S
C599        C606   1.452       .  S
C600        C601   1.422       .  A
C601        C602   1.418       .  A
C601        C604   1.452       .  S
C602        C605   1.452       .  S
C603        N610   1.158       .  T
C604        N609   1.158       .  T
C605        N607   1.158       .  T
C606        N608   1.158       .  T
C611        C612   1.410       .  A
C612        C613   1.408       .  A
C612        C617   1.449       .  S
C613        C614   1.408       .  A
C613        C620   1.449       .  S
C615        C616   1.407       .  A
C615        C618   1.449       .  S
C616        C619   1.448       .  S
C617        N624   1.157       .  T
C618        N623   1.157       .  T
C619        N621   1.157       .  T
C620        N622   1.157       .  T
C625        C626   1.422       .  A
C626        C627   1.420       .  A
C626        C631   1.451       .  S
C627        C634   1.452       .  S
C628        C629   1.422       .  A
C629        C630   1.420       .  A
C629        C632   1.451       .  S
C630        C633   1.452       .  S
C631        N638   1.158       .  T
C632        N637   1.157       .  T
C633        N635   1.158       .  T
C634        N636   1.158       .  T
C639        C644   1.423   1_545  A
C640        C641   1.420       .  A
C640        C645   1.452       .  S
C641        C648   1.451       .  S
C642        C643   1.421   1_545  A
C643        C644   1.420       .  A
C643        C646   1.452       .  S
C644        C647   1.452       .  S
C645        N652   1.158       .  T
C646        N651   1.158       .  T
C647        N649   1.158       .  T
C648        N650   1.157       .  T
C653       C1542   1.406       .  A
C654       C1541   1.406       .  A
C654        C655   1.407       .  A
C654        C659   1.448       .  S
C655       C1544   1.407       .  A
C655        C662   1.448       .  S
C656       C1543   1.407       .  A
C657        C658   1.408       .  A
C657        C660   1.448       .  S
C658        C661   1.448       .  S
C659        N666   1.157       .  T
C660        N665   1.157       .  T
C661        N663   1.157       .  T
C662        N664   1.157       .  T
C667        C670   1.534       .  S
C668        C672   1.550       .  S
C668        C674   1.531       .  S
C668        C850   1.560       .  S
C669       C1560   1.406   1_455  A
C670        C681   1.375       .  A
C670       C1561   1.396   1_455  A
C671        C685   1.381       .  A
C671       C1562   1.395   1_455  A
C672       C1557   1.406       .  A
C672        C675   1.378   1_565  A
C673       C1558   1.396       .  A
C673        C679   1.378       .  A
C674       C1559   1.395       .  A
C674        C682   1.373       .  A
C675        H688   1.082       .  S
N676       C1565   1.353       .  A
N676        C878   1.432       .  S
C677        H678   1.082       .  S
C677       N1564   1.353       .  A
C679        H689   1.082       .  S
C679       N1568   1.355       .  A
N680       C1567   1.355   1_455  A
N680        C681   1.354       .  A
N680        C777   1.426       .  S
C681        H687   1.084       .  S
C682        H684   1.084       .  S
C682        N683   1.353       .  A
N683       C1573   1.356       .  A
N683        C760   1.428       .  S
C685        H686   1.082       .  S
C685       N1571   1.356       .  A
C690        C693   1.546       .  S
C690        C847   1.560       .  S
C691        C695   1.548   1_545  S
C691        C697   1.542   1_545  S
C691        C861   1.559       .  S
C692        C695   1.404       .  A
C693        C704   1.383       .  A
C693        C696   1.395       .  A
C694        C708   1.374       .  A
C694        C697   1.397       .  A
C695        C698   1.378       .  A
C696        C702   1.369       .  A
C697        C705   1.380       .  A
C698        H711   1.082       .  S
N699        C700   1.354       .  A
N699        C833   1.435       .  S
C700        H701   1.082       .  S
C702        H712   1.082       .  S
C702        N703   1.351       .  A
N703        C704   1.358       .  A
N703        C800   1.426       .  S
C704        H710   1.082       .  S
C705        H707   1.082       .  S
C705        N706   1.355       .  A
N706        C708   1.354       .  A
N706        C783   1.426       .  S
C708        H709   1.082       .  S
C713        C715   1.531       .  S
C713        C717   1.545       .  S
C713        C808   1.555       .  S
C714        C719   1.551       .  S
C715        C723   1.376       .  A
C715       C1606   1.389   1_565  A
C716        C727   1.380       .  A
C716       C1607   1.402       .  A
C717        C731   1.380       .  A
C717       C1608   1.402       .  A
C718       C1603   1.389   1_445  A
C719       C1604   1.402   1_455  A
C719        C725   1.383       .  A
C720       C1605   1.402   1_455  A
C720        C728   1.382       .  A
C721        H734   1.083       .  S
C721       N1610   1.354       .  A
N722       C1609   1.354       .  A
N722        C875   1.431       .  S
C723        H724   1.082       .  S
C725        H735   1.082       .  S
C725        N726   1.356       .  A
N726       C1615   1.355   1_455  A
N726        C779   1.432       .  S
C727        H733   1.082       .  S
C727       N1614   1.355       .  A
C728        H730   1.083       .  S
C728       N1617   1.355       .  A
N729       C1616   1.355       .  A
N729        C731   1.356       .  A
N729        C774   1.432       .  S
C731        H732   1.082       .  S
C736        C738   1.531   1_565  S
C736        C740   1.546       .  S
C736        C822   1.557       .  S
C737        C742   1.551       .  S
C737        C805   1.556       .  S
C738        C746   1.375       .  A
C738        C741   1.389       .  A
C739        C750   1.377       .  A
C739        C742   1.402       .  A
C740        C754   1.382       .  A
C740        C743   1.403       .  A
C742        C748   1.384       .  A
C743        C751   1.383       .  A
C744        H757   1.082       .  S
C744        N745   1.355       .  A
N745        C836   1.433       .  S
C746        H747   1.082       .  S
C748        H758   1.082       .  S
C748        N749   1.356       .  A
N749        C750   1.354       .  A
N749        C802   1.431       .  S
C750        H756   1.083       .  S
C751        H753   1.083       .  S
C751        N752   1.355       .  A
N752        C754   1.356       .  A
N752        C797   1.433       .  S
C754        H755   1.082       .  S
O759        C775   1.268       .  A
O759       Zn765   1.977       .  S
C760        O776   1.273       .  A
C760       O1661   1.272       .  A
O761       C1662   1.277       .  A
O761       Cd768   2.087       .  S
O762        C780   1.268       .  A
O762       Cd771   2.024       .  S
O763       C1665   1.273       .  A
O763       Cd767   2.058       .  S
O764        C775   1.267       .  A
O764       Cd767   2.022       .  S
Zn765       O776   2.013       .  S
Zn765       O770   1.933       .  S
O766        C777   1.272       .  A
O766       Cd771   2.064       .  S
Cd767       O770   1.985       .  S
Cd768       O772   2.090       .  S
Cd768       O781   2.038       .  S
Cd768      O1436   1.996   1_556  S
O769       C1667   1.273       .  A
O770      Cd1434   1.996       .  S
O770      Cd1659   1.994       .  S
Cd771       O773   2.064       .  S
Cd771      O1658   1.994       .  S
O772        C779   1.277       .  A
O773       C1648   1.272       .  A
C774       O1649   1.277       .  A
C774        O778   1.273       .  A
C775        C803   1.429       .  S
C777       O1651   1.273   1_455  A
C779       O1657   1.273   1_455  A
C780        C798   1.431       .  S
O782        C798   1.268       .  A
O782       Zn788   1.975       .  S
C783        O799   1.273       .  A
C783        O796   1.271       .  A
O784        C797   1.277       .  A
O784       Cd791   2.086       .  S
O785        C803   1.267       .  A
O785       Cd794   2.021       .  S
O786        C800   1.273       .  A
O786       Cd790   2.055       .  S
O787        C798   1.268       .  A
O787       Cd790   2.028       .  S
Zn788       O799   2.015       .  S
Zn788       O793   1.933       .  S
O789        C800   1.271       .  A
O789       Cd794   2.063       .  S
Cd790       O793   1.983       .  S
Cd791       O795   2.092       .  S
Cd791       O804   2.037       .  S
O792        C802   1.272       .  A
O793       Cd794   1.994       .  S
Cd794       O796   2.057       .  S
O795        C802   1.277       .  A
C797        O801   1.273       .  A
C805        C806   1.421       .  A
C806        C807   1.418       .  A
C806        C811   1.452       .  S
C807        C814   1.452       .  S
C808        C809   1.422       .  A
C809        C810   1.419       .  A
C809        C812   1.452       .  S
C810        C813   1.452       .  S
C811        N818   1.158       .  T
C812        N817   1.158       .  T
C813        N815   1.158       .  T
C814        N816   1.158       .  T
C819        C824   1.422   1_545  A
C820        C821   1.419       .  A
C820        C825   1.452       .  S
C821        C828   1.452       .  S
C822        C823   1.422       .  A
C823        C824   1.418       .  A
C823        C826   1.452       .  S
C824        C827   1.452       .  S
C825        N832   1.158       .  T
C826        N831   1.158       .  T
C827        N829   1.158       .  T
C828        N830   1.158       .  T
C833        C834   1.410       .  A
C834        C835   1.408       .  A
C834        C839   1.449       .  S
C835        C836   1.408       .  A
C835        C842   1.449       .  S
C837        C838   1.407       .  A
C837        C840   1.449       .  S
C838        C841   1.448       .  S
C839        N846   1.157       .  T
C840        N845   1.157       .  T
C841        N843   1.157       .  T
C842        N844   1.157       .  T
C847        C848   1.422       .  A
C848        C849   1.420       .  A
C848        C853   1.451       .  S
C849        C856   1.452       .  S
C850        C851   1.422       .  A
C851        C852   1.420       .  A
C851        C854   1.451       .  S
C852        C855   1.452       .  S
C853        N860   1.158       .  T
C854        N859   1.157       .  T
C855        N857   1.158       .  T
C856        N858   1.158       .  T
C861        C866   1.423   1_545  A
C862        C863   1.420       .  A
C862        C867   1.452       .  S
C863        C870   1.451       .  S
C864        C865   1.421   1_545  A
C865        C866   1.420       .  A
C865        C868   1.452       .  S
C866        C869   1.452       .  S
C867        N874   1.158       .  T
C868        N873   1.158       .  T
C869        N871   1.158       .  T
C870        N872   1.157       .  T
C875       C1764   1.406       .  A
C876       C1763   1.406       .  A
C876        C877   1.407       .  A
C876        C881   1.448       .  S
C877       C1766   1.407       .  A
C877        C884   1.448       .  S
C878       C1765   1.407       .  A
C879        C880   1.408       .  A
C879        C882   1.448       .  S
C880        C883   1.448       .  S
C881        N888   1.157       .  T
C882        N887   1.157       .  T
C883        N885   1.157       .  T
C884        N886   1.157       .  T
C889       C1335   1.544   1_545  S
C889       C1337   1.544   1_545  S
C889        C892   1.534       .  S
C889       C1530   1.558       .  S
C890        C894   1.550       .  S
C890        C896   1.531       .  S
C890       C1339   1.542       .  S
C890       C1072   1.560       .  S
C891       C1333   1.544       .  S
C891       C1343   1.377       .  A
C892        C903   1.375       .  A
C893       C1333   1.544       .  S
C893        C907   1.381       .  A
C894        C897   1.378       .  A
C895       C1334   1.542   1_545  S
C895        C901   1.378       .  A
C896        C904   1.373       .  A
C897        H910   1.082       .  S
C897       N1342   1.354   1_655  A
N898       C1341   1.354   1_465  A
N898       C1100   1.432       .  S
C899       C1335   1.377       .  A
C899        H900   1.082       .  S
C901        H911   1.082       .  S
N902        C903   1.354       .  A
N902        C999   1.426       .  S
C903        H909   1.084       .  S
C904        H906   1.084       .  S
C904        N905   1.353   1_655  A
N905        C982   1.428       .  S
C907        H908   1.082       .  S
C912       C1358   1.544       .  S
C912       C1360   1.535       .  S
C912        C915   1.546   1_565  S
C912       C1069   1.560       .  S
C913        C917   1.548       .  S
C913        C919   1.542       .  S
C913       C1362   1.528       .  S
C913       C1083   1.559       .  S
C914       C1356   1.544       .  S
C914       C1366   1.377       .  A
C914        C917   1.404       .  A
C915        C926   1.383       .  A
C915        C918   1.395       .  A
C916       C1356   1.535       .  S
C916        C930   1.374       .  A
C916        C919   1.397       .  A
C917        C920   1.378       .  A
C918       C1357   1.528       .  S
C918        C924   1.369       .  A
C919        C927   1.380       .  A
C920        H933   1.082       .  S
C920       N1365   1.355       .  A
N921       C1364   1.355       .  A
N921        C922   1.354   1_565  A
N921       C1055   1.435   1_565  S
C922       C1358   1.377   1_545  A
C922        H923   1.082       .  S
C924        H934   1.082       .  S
C924        N925   1.351       .  A
N925        C926   1.358       .  A
N925       C1022   1.426       .  S
C926        H932   1.082       .  S
C927        H929   1.082       .  S
C927        N928   1.355       .  A
N928        C930   1.354       .  A
N928       C1005   1.426       .  S
C930        H931   1.082       .  S
C935        C937   1.531       .  S
C935        C939   1.545       .  S
C935       C1382   1.545       .  S
C935       C1030   1.555       .  S
C936       C1384   1.526       .  S
C936       C1386   1.550   1_545  S
C936        C941   1.551       .  S
C936       C1485   1.556       .  S
C937        C945   1.376       .  A
C938       C1379   1.545   1_545  S
C938        C949   1.380       .  A
C939        C953   1.380       .  A
C940       C1380   1.526       .  S
C940       C1387   1.374       .  A
C941        C947   1.383       .  A
C942       C1380   1.550       .  S
C942        C950   1.382       .  A
C943       C1384   1.374       .  A
C943        H956   1.082       .  S
N944       C1389   1.356   1_455  A
N944       C1097   1.431       .  S
C945        H946   1.082       .  S
C945       N1388   1.356   1_655  A
C947        H957   1.082       .  S
C947        N948   1.356       .  A
N948       C1001   1.432       .  S
C949        H955   1.083       .  S
C950        H952   1.083       .  S
N951        C953   1.356   1_455  A
N951        C996   1.432       .  S
C953        H954   1.082       .  S
C958        C960   1.531       .  S
C958        C962   1.546       .  S
C958       C1405   1.543       .  S
C958       C1044   1.557       .  S
C959       C1407   1.526   1_565  S
C959       C1409   1.551       .  S
C959        C964   1.551   1_565  S
C959       C1027   1.556       .  S
C960        C968   1.375       .  A
C960        C963   1.389       .  A
C961       C1402   1.543   1_545  S
C961        C972   1.377       .  A
C961        C964   1.402       .  A
C962        C976   1.382       .  A
C962        C965   1.403       .  A
C963       C1403   1.526       .  S
C963       C1410   1.374       .  A
C964        C970   1.384       .  A
C965       C1403   1.551       .  S
C965        C973   1.383       .  A
C966       C1407   1.374       .  A
C966        H979   1.083       .  S
C966        N967   1.355       .  A
N967       C1412   1.356       .  A
N967       C1058   1.433       .  S
C968        H969   1.082       .  S
C968       N1411   1.356       .  A
C970        H980   1.082       .  S
C970        N971   1.356       .  A
N971        C972   1.354       .  A
N971       C1024   1.431       .  S
C972        H978   1.083       .  S
C973        H975   1.083       .  S
C973        N974   1.355       .  A
N974        C976   1.356       .  A
N974       C1019   1.433       .  S
C976        H977   1.082       .  S
O981        C997   1.268       .  A
O981       Zn987   1.977       .  S
C982        O998   1.273   1_455  A
O983       Cd990   2.087       .  S
O984       C1002   1.268       .  A
O984       Cd993   2.024       .  S
O985       Cd989   2.058       .  S
O986        C997   1.267       .  A
O986       Cd989   2.022       .  S
Zn987       O998   2.013       .  S
Zn987      O1222   2.012   1_554  S
Zn987       O992   1.933   1_655  S
O988        C999   1.272       .  A
O988       Cd993   2.064       .  S
Cd989      O1213   2.064   1_554  S
Cd989       O992   1.985   1_655  S
Cd990       O994   2.090       .  S
Cd990      O1003   2.038       .  S
O991      Cd1211   2.064       .  S
Cd993       O995   2.064       .  S
O994       C1001   1.277       .  A
C996       O1000   1.273   1_455  A
C997       C1025   1.429       .  S
O1000     Zn1209   2.012       .  S
C1002      O1225   1.270   1_554  A
C1002      C1020   1.431       .  S
O1003      C1224   1.270       .  A
O1004      C1020   1.268       .  A
O1004     Zn1010   1.975       .  S
C1005      O1021   1.273       .  A
C1005      O1018   1.271       .  A
O1006      C1019   1.277       .  A
O1006     Cd1013   2.086       .  S
O1007      C1025   1.267       .  A
O1007     Cd1016   2.021       .  S
O1008      C1022   1.273       .  A
O1008     Cd1012   2.055       .  S
O1009      C1020   1.268       .  A
O1009     Cd1012   2.028       .  S
Zn1010     O1021   2.015       .  S
Zn1010     O1245   2.018   1_554  S
Zn1010     O1015   1.933       .  S
O1011      C1022   1.271       .  A
O1011     Cd1016   2.063       .  S
Cd1012     O1236   2.056   1_554  S
Cd1012     O1015   1.983       .  S
Cd1013     O1017   2.092       .  S
Cd1013     O1026   2.037       .  S
Cd1013     O1237   1.996       .  S
O1014      C1024   1.272       .  A
O1014     Cd1234   2.056       .  S
O1015     Cd1235   1.996   1_554  S
O1015     Cd1016   1.994       .  S
Cd1016     O1018   2.057       .  S
O1017      C1024   1.277       .  A
C1019      O1023   1.273       .  A
O1023     Zn1232   2.018       .  S
C1025      O1248   1.269   1_554  A
O1026      C1247   1.269       .  A
C1027      C1028   1.421   1_565  A
C1027      C1476   1.422       .  A
C1028      C1029   1.418       .  A
C1028      C1033   1.452       .  S
C1029      C1474   1.422   1_545  A
C1029      C1036   1.452       .  S
C1030      C1473   1.422       .  A
C1030      C1031   1.422       .  A
C1031      C1032   1.419       .  A
C1031      C1034   1.452       .  S
C1032      C1471   1.422       .  A
C1032      C1035   1.452       .  S
C1033      N1040   1.158       .  T
C1034      N1039   1.158       .  T
C1035      N1037   1.158       .  T
C1036      N1038   1.158       .  T
C1041      C1380   1.556       .  S
C1041      C1486   1.422       .  A
C1041      C1046   1.422       .  A
C1042      C1485   1.422       .  A
C1042      C1043   1.419       .  A
C1042      C1047   1.452       .  S
C1043      C1488   1.423   1_545  A
C1043      C1050   1.452       .  S
C1044      C1487   1.423       .  A
C1044      C1045   1.422       .  A
C1045      C1046   1.418       .  A
C1045      C1048   1.452       .  S
C1046      C1049   1.452       .  S
C1047      N1054   1.158       .  T
C1048      N1053   1.158       .  T
C1049      N1051   1.158       .  T
C1050      N1052   1.158       .  T
C1055      C1056   1.410       .  A
C1055      C1504   1.409   1_545  A
C1056      C1057   1.408       .  A
C1056      C1061   1.449       .  S
C1057      C1058   1.408       .  A
C1057      C1064   1.449       .  S
C1058      C1503   1.407   1_545  A
C1059      C1502   1.407       .  A
C1059      C1060   1.407       .  A
C1059      C1062   1.449       .  S
C1060      C1499   1.409       .  A
C1060      C1063   1.448       .  S
C1061      N1068   1.157       .  T
C1062      N1067   1.157       .  T
C1063      N1065   1.157       .  T
C1064      N1066   1.157       .  T
C1069      C1070   1.422   1_565  A
C1069      C1518   1.422       .  A
C1070      C1071   1.420       .  A
C1070      C1075   1.451       .  S
C1071      C1516   1.423   1_545  A
C1071      C1078   1.452       .  S
C1072      C1515   1.423       .  A
C1072      C1073   1.422       .  A
C1073      C1074   1.420       .  A
C1073      C1076   1.451       .  S
C1074      C1513   1.422       .  A
C1074      C1077   1.452       .  S
C1075      N1082   1.158       .  T
C1076      N1081   1.157       .  T
C1077      N1079   1.158       .  T
C1078      N1080   1.158       .  T
C1083      C1528   1.423       .  A
C1083      C1088   1.423       .  A
C1084      C1527   1.423       .  A
C1084      C1085   1.420       .  A
C1084      C1089   1.452       .  S
C1085      C1530   1.420       .  A
C1085      C1092   1.451       .  S
C1086      C1333   1.558       .  S
C1086      C1529   1.420       .  A
C1086      C1087   1.421       .  A
C1087      C1088   1.420       .  A
C1087      C1090   1.452       .  S
C1088      C1091   1.452       .  S
C1089      N1096   1.158       .  T
C1090      N1095   1.158       .  T
C1091      N1093   1.158       .  T
C1092      N1094   1.157       .  T
C1097      C1546   1.407       .  A
C1098      C1099   1.407       .  A
C1098      C1103   1.448       .  S
C1099      C1106   1.448       .  S
C1100      C1545   1.407       .  A
C1101      C1544   1.407       .  A
C1101      C1102   1.408       .  A
C1101      C1104   1.448       .  S
C1102      C1541   1.407       .  A
C1102      C1105   1.448       .  S
C1103      N1110   1.157       .  T
C1104      N1109   1.157       .  T
C1105      N1107   1.157       .  T
C1106      N1108   1.157       .  T
C1111      C1557   1.544   1_545  S
C1111      C1559   1.544   1_545  S
C1111      C1114   1.534       .  S
C1111      C1752   1.558       .  S
C1112      C1116   1.550       .  S
C1112      C1118   1.531       .  S
C1112      C1561   1.542       .  S
C1112      C1294   1.560       .  S
C1113      C1555   1.544       .  S
C1113      C1565   1.377       .  A
C1114      C1125   1.375       .  A
C1115      C1555   1.544       .  S
C1115      C1129   1.381       .  A
C1116      C1119   1.378       .  A
C1117      C1556   1.542   1_545  S
C1117      C1123   1.378       .  A
C1118      C1126   1.373       .  A
C1119      H1132   1.082       .  S
C1119      N1564   1.354   1_655  A
N1120      C1563   1.354   1_465  A
N1120      C1322   1.432       .  S
C1121      C1557   1.377       .  A
C1121      H1122   1.082       .  S
C1123      H1133   1.082       .  S
N1124      C1125   1.354       .  A
N1124      C1221   1.426       .  S
C1125      H1131   1.084       .  S
C1126      H1128   1.084       .  S
C1126      N1127   1.353   1_655  A
N1127      C1204   1.428       .  S
C1129      H1130   1.082       .  S
C1134      C1580   1.544       .  S
C1134      C1582   1.535       .  S
C1134      C1137   1.546   1_565  S
C1134      C1291   1.560       .  S
C1135      C1139   1.548       .  S
C1135      C1141   1.542       .  S
C1135      C1584   1.528       .  S
C1135      C1305   1.559       .  S
C1136      C1578   1.544       .  S
C1136      C1588   1.377       .  A
C1136      C1139   1.404       .  A
C1137      C1148   1.383       .  A
C1137      C1140   1.395       .  A
C1138      C1578   1.535       .  S
C1138      C1152   1.374       .  A
C1138      C1141   1.397       .  A
C1139      C1142   1.378       .  A
C1140      C1579   1.528       .  S
C1140      C1146   1.369       .  A
C1141      C1149   1.380       .  A
C1142      H1155   1.082       .  S
C1142      N1587   1.355       .  A
N1143      C1586   1.355       .  A
N1143      C1144   1.354   1_565  A
N1143      C1277   1.435   1_565  S
C1144      C1580   1.377   1_545  A
C1144      H1145   1.082       .  S
C1146      H1156   1.082       .  S
C1146      N1147   1.351       .  A
N1147      C1148   1.358       .  A
N1147      C1244   1.426       .  S
C1148      H1154   1.082       .  S
C1149      H1151   1.082       .  S
C1149      N1150   1.355       .  A
N1150      C1152   1.354       .  A
N1150      C1227   1.426       .  S
C1152      H1153   1.082       .  S
C1157      C1159   1.531       .  S
C1157      C1161   1.545       .  S
C1157      C1604   1.545       .  S
C1157      C1252   1.555       .  S
C1158      C1606   1.526       .  S
C1158      C1608   1.550   1_545  S
C1158      C1163   1.551       .  S
C1158      C1707   1.556       .  S
C1159      C1167   1.376       .  A
C1160      C1601   1.545   1_545  S
C1160      C1171   1.380       .  A
C1161      C1175   1.380       .  A
C1162      C1602   1.526       .  S
C1162      C1609   1.374       .  A
C1163      C1169   1.383       .  A
C1164      C1602   1.550       .  S
C1164      C1172   1.382       .  A
C1165      C1606   1.374       .  A
C1165      H1178   1.082       .  S
N1166      C1611   1.356   1_455  A
N1166      C1319   1.431       .  S
C1167      H1168   1.082       .  S
C1167      N1610   1.356   1_655  A
C1169      H1179   1.082       .  S
C1169      N1170   1.356       .  A
N1170      C1223   1.432       .  S
C1171      H1177   1.083       .  S
C1172      H1174   1.083       .  S
N1173      C1175   1.356   1_455  A
N1173      C1218   1.432       .  S
C1175      H1176   1.082       .  S
C1180      C1182   1.531       .  S
C1180      C1184   1.546       .  S
C1180      C1627   1.543       .  S
C1180      C1266   1.557       .  S
C1181      C1629   1.526   1_565  S
C1181      C1631   1.551       .  S
C1181      C1186   1.551   1_565  S
C1181      C1249   1.556       .  S
C1182      C1190   1.375       .  A
C1182      C1185   1.389       .  A
C1183      C1624   1.543   1_545  S
C1183      C1194   1.377       .  A
C1183      C1186   1.402       .  A
C1184      C1198   1.382       .  A
C1184      C1187   1.403       .  A
C1185      C1625   1.526       .  S
C1185      C1632   1.374       .  A
C1186      C1192   1.384       .  A
C1187      C1625   1.551       .  S
C1187      C1195   1.383       .  A
C1188      C1629   1.374       .  A
C1188      H1201   1.083       .  S
C1188      N1189   1.355       .  A
N1189      C1634   1.356       .  A
N1189      C1280   1.433       .  S
C1190      H1191   1.082       .  S
C1190      N1633   1.356       .  A
C1192      H1202   1.082       .  S
C1192      N1193   1.356       .  A
N1193      C1194   1.354       .  A
N1193      C1246   1.431       .  S
C1194      H1200   1.083       .  S
C1195      H1197   1.083       .  S
C1195      N1196   1.355       .  A
N1196      C1198   1.356       .  A
N1196      C1241   1.433       .  S
C1198      H1199   1.082       .  S
O1203      C1219   1.268       .  A
O1203     Zn1209   1.977       .  S
C1204      O1220   1.273   1_455  A
O1205     Cd1212   2.087       .  S
O1206      C1224   1.268       .  A
O1206     Cd1215   2.024       .  S
O1207     Cd1211   2.058       .  S
O1208      C1219   1.267       .  A
O1208     Cd1211   2.022       .  S
Zn1209     O1220   2.013       .  S
Zn1209     O1214   1.933   1_655  S
O1210      C1221   1.272       .  A
O1210     Cd1215   2.064       .  S
Cd1211     O1214   1.985   1_655  S
Cd1212     O1216   2.090       .  S
Cd1212     O1225   2.038       .  S
Cd1215     O1217   2.064       .  S
O1216      C1223   1.277       .  A
C1218      O1222   1.273   1_455  A
C1219      C1247   1.429       .  S
C1224      C1242   1.431       .  S
O1226      C1242   1.268       .  A
O1226     Zn1232   1.975       .  S
C1227      O1243   1.273       .  A
C1227      O1240   1.271       .  A
O1228      C1241   1.277       .  A
O1228     Cd1235   2.086       .  S
O1229      C1247   1.267       .  A
O1229     Cd1238   2.021       .  S
O1230      C1244   1.273       .  A
O1230     Cd1234   2.055       .  S
O1231      C1242   1.268       .  A
O1231     Cd1234   2.028       .  S
Zn1232     O1243   2.015       .  S
Zn1232     O1237   1.933       .  S
O1233      C1244   1.271       .  A
O1233     Cd1238   2.063       .  S
Cd1234     O1237   1.983       .  S
Cd1235     O1239   2.092       .  S
Cd1235     O1248   2.037       .  S
O1236      C1246   1.272       .  A
O1237     Cd1238   1.994       .  S
Cd1238     O1240   2.057       .  S
O1239      C1246   1.277       .  A
C1241      O1245   1.273       .  A
C1249      C1250   1.421   1_565  A
C1249      C1698   1.422       .  A
C1250      C1251   1.418       .  A
C1250      C1255   1.452       .  S
C1251      C1696   1.422   1_545  A
C1251      C1258   1.452       .  S
C1252      C1695   1.422       .  A
C1252      C1253   1.422       .  A
C1253      C1254   1.419       .  A
C1253      C1256   1.452       .  S
C1254      C1693   1.422       .  A
C1254      C1257   1.452       .  S
C1255      N1262   1.158       .  T
C1256      N1261   1.158       .  T
C1257      N1259   1.158       .  T
C1258      N1260   1.158       .  T
C1263      C1602   1.556       .  S
C1263      C1708   1.422       .  A
C1263      C1268   1.422       .  A
C1264      C1707   1.422       .  A
C1264      C1265   1.419       .  A
C1264      C1269   1.452       .  S
C1265      C1710   1.423   1_545  A
C1265      C1272   1.452       .  S
C1266      C1709   1.423       .  A
C1266      C1267   1.422       .  A
C1267      C1268   1.418       .  A
C1267      C1270   1.452       .  S
C1268      C1271   1.452       .  S
C1269      N1276   1.158       .  T
C1270      N1275   1.158       .  T
C1271      N1273   1.158       .  T
C1272      N1274   1.158       .  T
C1277      C1278   1.410       .  A
C1277      C1726   1.409   1_545  A
C1278      C1279   1.408       .  A
C1278      C1283   1.449       .  S
C1279      C1280   1.408       .  A
C1279      C1286   1.449       .  S
C1280      C1725   1.407   1_545  A
C1281      C1724   1.407       .  A
C1281      C1282   1.407       .  A
C1281      C1284   1.449       .  S
C1282      C1721   1.409       .  A
C1282      C1285   1.448       .  S
C1283      N1290   1.157       .  T
C1284      N1289   1.157       .  T
C1285      N1287   1.157       .  T
C1286      N1288   1.157       .  T
C1291      C1292   1.422   1_565  A
C1291      C1740   1.422       .  A
C1292      C1293   1.420       .  A
C1292      C1297   1.451       .  S
C1293      C1738   1.423   1_545  A
C1293      C1300   1.452       .  S
C1294      C1737   1.423       .  A
C1294      C1295   1.422       .  A
C1295      C1296   1.420       .  A
C1295      C1298   1.451       .  S
C1296      C1735   1.422       .  A
C1296      C1299   1.452       .  S
C1297      N1304   1.158       .  T
C1298      N1303   1.157       .  T
C1299      N1301   1.158       .  T
C1300      N1302   1.158       .  T
C1305      C1750   1.423       .  A
C1305      C1310   1.423       .  A
C1306      C1749   1.423       .  A
C1306      C1307   1.420       .  A
C1306      C1311   1.452       .  S
C1307      C1752   1.420       .  A
C1307      C1314   1.451       .  S
C1308      C1555   1.558       .  S
C1308      C1751   1.420       .  A
C1308      C1309   1.421       .  A
C1309      C1310   1.420       .  A
C1309      C1312   1.452       .  S
C1310      C1313   1.452       .  S
C1311      N1318   1.158       .  T
C1312      N1317   1.158       .  T
C1313      N1315   1.158       .  T
C1314      N1316   1.157       .  T
C1319      C1768   1.407       .  A
C1320      C1321   1.407       .  A
C1320      C1325   1.448       .  S
C1321      C1328   1.448       .  S
C1322      C1767   1.407       .  A
C1323      C1766   1.407       .  A
C1323      C1324   1.408       .  A
C1323      C1326   1.448       .  S
C1324      C1763   1.407       .  A
C1324      C1327   1.448       .  S
C1325      N1332   1.157       .  T
C1326      N1331   1.157       .  T
C1327      N1329   1.157       .  T
C1328      N1330   1.157       .  T
C1333      C1336   1.534       .  S
C1334      C1338   1.550       .  S
C1334      C1340   1.531       .  S
C1334      C1516   1.560       .  S
C1336      C1347   1.375       .  A
C1337      C1351   1.381       .  A
C1338      C1341   1.378   1_565  A
C1339      C1345   1.378       .  A
C1340      C1348   1.373       .  A
C1341      H1354   1.082       .  S
N1342      C1544   1.432       .  S
C1343      H1344   1.082       .  S
C1345      H1355   1.082       .  S
N1346      C1347   1.354       .  A
N1346      C1443   1.426       .  S
C1347      H1353   1.084       .  S
C1348      H1350   1.084       .  S
C1348      N1349   1.353   1_655  A
N1349      C1426   1.428       .  S
C1351      H1352   1.082       .  S
C1356      C1359   1.546       .  S
C1356      C1513   1.560       .  S
C1357      C1361   1.548   1_545  S
C1357      C1363   1.542   1_545  S
C1357      C1527   1.559       .  S
C1358      C1361   1.404       .  A
C1359      C1370   1.383       .  A
C1359      C1362   1.395       .  A
C1360      C1374   1.374       .  A
C1360      C1363   1.397       .  A
C1361      C1364   1.378       .  A
C1362      C1368   1.369       .  A
C1363      C1371   1.380       .  A
C1364      H1377   1.082       .  S
N1365      C1366   1.354       .  A
N1365      C1499   1.435       .  S
C1366      H1367   1.082       .  S
C1368      H1378   1.082       .  S
C1368      N1369   1.351       .  A
N1369      C1370   1.358       .  A
N1369      C1466   1.426       .  S
C1370      H1376   1.082       .  S
C1371      H1373   1.082       .  S
C1371      N1372   1.355       .  A
N1372      C1374   1.354       .  A
N1372      C1449   1.426       .  S
C1374      H1375   1.082       .  S
C1379      C1381   1.531       .  S
C1379      C1383   1.545       .  S
C1379      C1474   1.555       .  S
C1380      C1385   1.551       .  S
C1381      C1389   1.376       .  A
C1382      C1393   1.380       .  A
C1383      C1397   1.380       .  A
C1385      C1391   1.383       .  A
C1386      C1394   1.382       .  A
C1387      H1400   1.082       .  S
N1388      C1541   1.431       .  S
C1389      H1390   1.082       .  S
C1391      H1401   1.082       .  S
C1391      N1392   1.356       .  A
N1392      C1445   1.432       .  S
C1393      H1399   1.082       .  S
C1394      H1396   1.083       .  S
N1395      C1397   1.356   1_455  A
N1395      C1440   1.432       .  S
C1397      H1398   1.082       .  S
C1402      C1404   1.531   1_565  S
C1402      C1406   1.546       .  S
C1402      C1488   1.557       .  S
C1403      C1408   1.551       .  S
C1403      C1471   1.556       .  S
C1404      C1412   1.375       .  A
C1404      C1407   1.389       .  A
C1405      C1416   1.377       .  A
C1405      C1408   1.402       .  A
C1406      C1420   1.382       .  A
C1406      C1409   1.403       .  A
C1408      C1414   1.384       .  A
C1409      C1417   1.383       .  A
C1410      H1423   1.082       .  S
C1410      N1411   1.355       .  A
N1411      C1502   1.433       .  S
C1412      H1413   1.082       .  S
C1414      H1424   1.082       .  S
C1414      N1415   1.356       .  A
N1415      C1416   1.354       .  A
N1415      C1468   1.431       .  S
C1416      H1422   1.083       .  S
C1417      H1419   1.083       .  S
C1417      N1418   1.355       .  A
N1418      C1420   1.356       .  A
N1418      C1463   1.433       .  S
C1420      H1421   1.082       .  S
O1425      C1441   1.268       .  A
O1425     Zn1431   1.977       .  S
C1426      O1442   1.273   1_455  A
O1427     Cd1434   2.087       .  S
O1428      C1446   1.268       .  A
O1428     Cd1437   2.024       .  S
O1429     Cd1433   2.058       .  S
O1430      C1441   1.267       .  A
O1430     Cd1433   2.022       .  S
Zn1431     O1442   2.013       .  S
Zn1431     O1666   2.012   1_554  S
Zn1431     O1436   1.933   1_655  S
O1432      C1443   1.272       .  A
O1432     Cd1437   2.064       .  S
Cd1433     O1657   2.064   1_554  S
Cd1433     O1436   1.985   1_655  S
Cd1434     O1438   2.090       .  S
Cd1434     O1447   2.038       .  S
O1435     Cd1655   2.064       .  S
Cd1437     O1439   2.064       .  S
O1438      C1445   1.277       .  A
C1440      O1444   1.273   1_455  A
C1441      C1469   1.429       .  S
O1444     Zn1653   2.012       .  S
C1446      O1669   1.270   1_554  A
C1446      C1464   1.431       .  S
O1447      C1668   1.270       .  A
O1448      C1464   1.268       .  A
O1448     Zn1454   1.975       .  S
C1449      O1465   1.273       .  A
C1449      O1462   1.271       .  A
O1450      C1463   1.277       .  A
O1450     Cd1457   2.086       .  S
O1451      C1469   1.267       .  A
O1451     Cd1460   2.021       .  S
O1452      C1466   1.273       .  A
O1452     Cd1456   2.055       .  S
O1453      C1464   1.268       .  A
O1453     Cd1456   2.028       .  S
Zn1454     O1465   2.015       .  S
Zn1454     O1689   2.018   1_554  S
Zn1454     O1459   1.933       .  S
O1455      C1466   1.271       .  A
O1455     Cd1460   2.063       .  S
Cd1456     O1680   2.056   1_554  S
Cd1456     O1459   1.983       .  S
Cd1457     O1461   2.092       .  S
Cd1457     O1470   2.037       .  S
Cd1457     O1681   1.996       .  S
O1458      C1468   1.272       .  A
O1458     Cd1678   2.056       .  S
O1459     Cd1679   1.996   1_554  S
O1459     Cd1460   1.994       .  S
Cd1460     O1462   2.057       .  S
O1461      C1468   1.277       .  A
C1463      O1467   1.273       .  A
O1467     Zn1676   2.018       .  S
C1469      O1692   1.269   1_554  A
O1470      C1691   1.269       .  A
C1471      C1472   1.421       .  A
C1472      C1473   1.418       .  A
C1472      C1477   1.452       .  S
C1473      C1480   1.452       .  S
C1474      C1475   1.422       .  A
C1475      C1476   1.419       .  A
C1475      C1478   1.452       .  S
C1476      C1479   1.452       .  S
C1477      N1484   1.158       .  T
C1478      N1483   1.158       .  T
C1479      N1481   1.158       .  T
C1480      N1482   1.158       .  T
C1485      C1490   1.422   1_545  A
C1486      C1487   1.419       .  A
C1486      C1491   1.452       .  S
C1487      C1494   1.452       .  S
C1488      C1489   1.422       .  A
C1489      C1490   1.418       .  A
C1489      C1492   1.452       .  S
C1490      C1493   1.452       .  S
C1491      N1498   1.158       .  T
C1492      N1497   1.158       .  T
C1493      N1495   1.158       .  T
C1494      N1496   1.158       .  T
C1499      C1500   1.410       .  A
C1500      C1501   1.408       .  A
C1500      C1505   1.449       .  S
C1501      C1502   1.408       .  A
C1501      C1508   1.449       .  S
C1503      C1504   1.407       .  A
C1503      C1506   1.449       .  S
C1504      C1507   1.448       .  S
C1505      N1512   1.157       .  T
C1506      N1511   1.157       .  T
C1507      N1509   1.157       .  T
C1508      N1510   1.157       .  T
C1513      C1514   1.422       .  A
C1514      C1515   1.420       .  A
C1514      C1519   1.451       .  S
C1515      C1522   1.452       .  S
C1516      C1517   1.422       .  A
C1517      C1518   1.420       .  A
C1517      C1520   1.451       .  S
C1518      C1521   1.452       .  S
C1519      N1526   1.158       .  T
C1520      N1525   1.157       .  T
C1521      N1523   1.158       .  T
C1522      N1524   1.158       .  T
C1527      C1532   1.423   1_545  A
C1528      C1529   1.420       .  A
C1528      C1533   1.452       .  S
C1529      C1536   1.451       .  S
C1530      C1531   1.421   1_545  A
C1531      C1532   1.420       .  A
C1531      C1534   1.452       .  S
C1532      C1535   1.452       .  S
C1533      N1540   1.158       .  T
C1534      N1539   1.158       .  T
C1535      N1537   1.158       .  T
C1536      N1538   1.157       .  T
C1542      C1543   1.407       .  A
C1542      C1547   1.448       .  S
C1543      C1550   1.448       .  S
C1545      C1546   1.408       .  A
C1545      C1548   1.448       .  S
C1546      C1549   1.448       .  S
C1547      N1554   1.157       .  T
C1548      N1553   1.157       .  T
C1549      N1551   1.157       .  T
C1550      N1552   1.157       .  T
C1555      C1558   1.534       .  S
C1556      C1560   1.550       .  S
C1556      C1562   1.531       .  S
C1556      C1738   1.560       .  S
C1558      C1569   1.375       .  A
C1559      C1573   1.381       .  A
C1560      C1563   1.378   1_565  A
C1561      C1567   1.378       .  A
C1562      C1570   1.373       .  A
C1563      H1576   1.082       .  S
N1564      C1766   1.432       .  S
C1565      H1566   1.082       .  S
C1567      H1577   1.082       .  S
N1568      C1569   1.354       .  A
N1568      C1665   1.426       .  S
C1569      H1575   1.084       .  S
C1570      H1572   1.084       .  S
C1570      N1571   1.353   1_655  A
N1571      C1648   1.428       .  S
C1573      H1574   1.082       .  S
C1578      C1581   1.546       .  S
C1578      C1735   1.560       .  S
C1579      C1583   1.548   1_545  S
C1579      C1585   1.542   1_545  S
C1579      C1749   1.559       .  S
C1580      C1583   1.404       .  A
C1581      C1592   1.383       .  A
C1581      C1584   1.395       .  A
C1582      C1596   1.374       .  A
C1582      C1585   1.397       .  A
C1583      C1586   1.378       .  A
C1584      C1590   1.369       .  A
C1585      C1593   1.380       .  A
C1586      H1599   1.082       .  S
N1587      C1588   1.354       .  A
N1587      C1721   1.435       .  S
C1588      H1589   1.082       .  S
C1590      H1600   1.082       .  S
C1590      N1591   1.351       .  A
N1591      C1592   1.358       .  A
N1591      C1688   1.426       .  S
C1592      H1598   1.082       .  S
C1593      H1595   1.082       .  S
C1593      N1594   1.355       .  A
N1594      C1596   1.354       .  A
N1594      C1671   1.426       .  S
C1596      H1597   1.082       .  S
C1601      C1603   1.531       .  S
C1601      C1605   1.545       .  S
C1601      C1696   1.555       .  S
C1602      C1607   1.551       .  S
C1603      C1611   1.376       .  A
C1604      C1615   1.380       .  A
C1605      C1619   1.380       .  A
C1607      C1613   1.383       .  A
C1608      C1616   1.382       .  A
C1609      H1622   1.082       .  S
N1610      C1763   1.431       .  S
C1611      H1612   1.082       .  S
C1613      H1623   1.082       .  S
C1613      N1614   1.356       .  A
N1614      C1667   1.432       .  S
C1615      H1621   1.083       .  S
C1616      H1618   1.083       .  S
N1617      C1619   1.356   1_455  A
N1617      C1662   1.432       .  S
C1619      H1620   1.082       .  S
C1624      C1626   1.531   1_565  S
C1624      C1628   1.546       .  S
C1624      C1710   1.557       .  S
C1625      C1630   1.551       .  S
C1625      C1693   1.556       .  S
C1626      C1634   1.375       .  A
C1626      C1629   1.389       .  A
C1627      C1638   1.377       .  A
C1627      C1630   1.402       .  A
C1628      C1642   1.382       .  A
C1628      C1631   1.403       .  A
C1630      C1636   1.384       .  A
C1631      C1639   1.383       .  A
C1632      H1645   1.082       .  S
C1632      N1633   1.355       .  A
N1633      C1724   1.433       .  S
C1634      H1635   1.082       .  S
C1636      H1646   1.082       .  S
C1636      N1637   1.356       .  A
N1637      C1638   1.354       .  A
N1637      C1690   1.431       .  S
C1638      H1644   1.083       .  S
C1639      H1641   1.083       .  S
C1639      N1640   1.355       .  A
N1640      C1642   1.356       .  A
N1640      C1685   1.433       .  S
C1642      H1643   1.082       .  S
O1647      C1663   1.268       .  A
O1647     Zn1653   1.977       .  S
C1648      O1664   1.273   1_455  A
O1649     Cd1656   2.087       .  S
O1650      C1668   1.268       .  A
O1650     Cd1659   2.024       .  S
O1651     Cd1655   2.058       .  S
O1652      C1663   1.267       .  A
O1652     Cd1655   2.022       .  S
Zn1653     O1664   2.013       .  S
Zn1653     O1658   1.933   1_655  S
O1654      C1665   1.272       .  A
O1654     Cd1659   2.064       .  S
Cd1655     O1658   1.985   1_655  S
Cd1656     O1660   2.090       .  S
Cd1656     O1669   2.038       .  S
Cd1659     O1661   2.064       .  S
O1660      C1667   1.277       .  A
C1662      O1666   1.273   1_455  A
C1663      C1691   1.429       .  S
C1668      C1686   1.431       .  S
O1670      C1686   1.268       .  A
O1670     Zn1676   1.975       .  S
C1671      O1687   1.273       .  A
C1671      O1684   1.271       .  A
O1672      C1685   1.277       .  A
O1672     Cd1679   2.086       .  S
O1673      C1691   1.267       .  A
O1673     Cd1682   2.021       .  S
O1674      C1688   1.273       .  A
O1674     Cd1678   2.055       .  S
O1675      C1686   1.268       .  A
O1675     Cd1678   2.028       .  S
Zn1676     O1687   2.015       .  S
Zn1676     O1681   1.933       .  S
O1677      C1688   1.271       .  A
O1677     Cd1682   2.063       .  S
Cd1678     O1681   1.983       .  S
Cd1679     O1683   2.092       .  S
Cd1679     O1692   2.037       .  S
O1680      C1690   1.272       .  A
O1681     Cd1682   1.994       .  S
Cd1682     O1684   2.057       .  S
O1683      C1690   1.277       .  A
C1685      O1689   1.273       .  A
C1693      C1694   1.421       .  A
C1694      C1695   1.418       .  A
C1694      C1699   1.452       .  S
C1695      C1702   1.452       .  S
C1696      C1697   1.422       .  A
C1697      C1698   1.419       .  A
C1697      C1700   1.452       .  S
C1698      C1701   1.452       .  S
C1699      N1706   1.158       .  T
C1700      N1705   1.158       .  T
C1701      N1703   1.158       .  T
C1702      N1704   1.158       .  T
C1707      C1712   1.422   1_545  A
C1708      C1709   1.419       .  A
C1708      C1713   1.452       .  S
C1709      C1716   1.452       .  S
C1710      C1711   1.422       .  A
C1711      C1712   1.418       .  A
C1711      C1714   1.452       .  S
C1712      C1715   1.452       .  S
C1713      N1720   1.158       .  T
C1714      N1719   1.158       .  T
C1715      N1717   1.158       .  T
C1716      N1718   1.158       .  T
C1721      C1722   1.410       .  A
C1722      C1723   1.408       .  A
C1722      C1727   1.449       .  S
C1723      C1724   1.408       .  A
C1723      C1730   1.449       .  S
C1725      C1726   1.407       .  A
C1725      C1728   1.449       .  S
C1726      C1729   1.448       .  S
C1727      N1734   1.157       .  T
C1728      N1733   1.157       .  T
C1729      N1731   1.157       .  T
C1730      N1732   1.157       .  T
C1735      C1736   1.422       .  A
C1736      C1737   1.420       .  A
C1736      C1741   1.451       .  S
C1737      C1744   1.452       .  S
C1738      C1739   1.422       .  A
C1739      C1740   1.420       .  A
C1739      C1742   1.451       .  S
C1740      C1743   1.452       .  S
C1741      N1748   1.158       .  T
C1742      N1747   1.157       .  T
C1743      N1745   1.158       .  T
C1744      N1746   1.158       .  T
C1749      C1754   1.423   1_545  A
C1750      C1751   1.420       .  A
C1750      C1755   1.452       .  S
C1751      C1758   1.451       .  S
C1752      C1753   1.421   1_545  A
C1753      C1754   1.420       .  A
C1753      C1756   1.452       .  S
C1754      C1757   1.452       .  S
C1755      N1762   1.158       .  T
C1756      N1761   1.158       .  T
C1757      N1759   1.158       .  T
C1758      N1760   1.157       .  T
C1764      C1765   1.407       .  A
C1764      C1769   1.448       .  S
C1765      C1772   1.448       .  S
C1767      C1768   1.408       .  A
C1767      C1770   1.448       .  S
C1768      C1771   1.448       .  S
C1769      N1776   1.157       .  T
C1770      N1775   1.157       .  T
C1771      N1773   1.157       .  T
C1772      N1774   1.157       .  T
