geometry optimzed in LAMMPS
_audit_creation_date              2020-11-30 
_audit_creation_method            'lammps2cif' 
_symmetry_space_group_name_H-M    'P1' 
_symmetry_Int_Tables_number       1 
_symmetry_cell_setting            triclinic 
loop_ 
_symmetry_equiv_pos_as_xyz 
  x,y,z 
_cell_length_a                    52.95441298132282 
_cell_length_b                    33.322727822318086 
_cell_length_c                    38.13631502228295 
_cell_angle_alpha                 89.74341676741646 
_cell_angle_beta                  126.16362871801262 
_cell_angle_gamma                 90.06772512039689 
loop_ 
_atom_site_label 
_atom_site_type_symbol 
_atom_site_fract_x 
_atom_site_fract_y 
_atom_site_fract_z 
_atom_site_charge 
N1          N  0.41750356  0.51379644  0.51153947    -0.27260
N2          N  0.43175239  0.54792719  0.51577646    -0.35120
C3          C  0.45909042  0.53999001  0.52222389     0.01080
C4          C  0.46190907  0.49887911  0.52124908     0.07100
C5          C  0.43522180  0.48313045  0.51460380    -0.06000
H6          H  0.47625070  0.56236024  0.52903375     0.07770
H7          H  0.43012314  0.45175504  0.51502549     0.08970
Cu8        Cu  0.41515992  0.60308175  0.51824749     0.44170
Cu9        Cu  0.37780232  0.51110098  0.51011765     0.41990
Cu10       Cu  0.35725922  0.60368778  0.53997956     0.43880
N11         N  0.39985522  0.65449945  0.53039278    -0.34650
N12         N  0.38028480  0.65497947  0.54120651    -0.28900
C13         C  0.37872429  0.69266972  0.55255902    -0.05000
C14         C  0.39779002  0.71685860  0.54774806     0.07210
C15         C  0.41066288  0.69171701  0.53352925     0.01010
H16         H  0.36504087  0.70166019  0.56387185     0.08660
H17         H  0.42802507  0.69943333  0.52821396     0.07740
N18         N  0.33716024  0.54782469  0.53331372    -0.36100
N19         N  0.34418848  0.51476462  0.52165275    -0.28280
C20         C  0.32770829  0.48395503  0.52148967    -0.03520
C21         C  0.30971391  0.49801253  0.53427756     0.05090
C22         C  0.31598340  0.53876279  0.54086315     0.03180
H23         H  0.32875679  0.45369986  0.51236695     0.08290
H24         H  0.30636685  0.56012238  0.55138097     0.07120
N25         N  0.49421870  0.91738008  0.70543459    -0.27260
N26         N  0.47608026  0.88943244  0.70459287    -0.35120
C27         C  0.48350922  0.88508087  0.74474114     0.01080
C28         C  0.50719152  0.91168746  0.77191815     0.07100
C29         C  0.51363384  0.93146365  0.74616926    -0.06000
H30         H  0.47383755  0.86237403  0.75403919     0.07770
H31         H  0.03232945  0.95263476  0.75675043     0.08970
Cu32       Cu  0.44584010  0.85320429  0.65153871     0.44170
Cu33       Cu  0.49568248  0.93100199  0.65350313     0.41990
Cu34       Cu  0.45244759  0.86400289  0.56318178     0.43880
N35         N  0.42486358  0.81424435  0.59920453    -0.34650
N36         N  0.42831574  0.81788288  0.56771830    -0.28900
C37         C  0.41719741  0.78483372  0.54300820    -0.05000
C38         C  0.40591438  0.75924814  0.55936181     0.07210
C39         C  0.41094498  0.77886945  0.59488430     0.01010
H40         H  0.41909021  0.77875057  0.51678339     0.08660
H41         H  0.40757506  0.76671518  0.61821688     0.07740
N42         N  0.48114553  0.90868833  0.56709747    -0.36100
N43         N  0.49707901  0.93352004  0.60028508    -0.28280
C44         C  0.51476294  0.95742230  0.59432234    -0.03520
C45         C  0.50970887  0.94696307  0.55554546     0.05090
C46         C  0.48821292  0.91604334  0.53911253     0.03180
H47         H  0.03062332  0.98004444  0.61701242     0.08290
H48         H  0.47889586  0.89947691  0.50952042     0.07120
N49         N  0.11686493  0.39723313  0.57978640    -0.27260
N50         N  0.10262826  0.36310594  0.57560027    -0.35120
C51         C  0.07528928  0.37105108  0.56914680     0.01080
C52         C  0.07245798  0.41216522  0.57006468     0.07100
C53         C  0.09913813  0.42790680  0.57668299    -0.06000
H54         H  0.05813913  0.34868162  0.56237764     0.07770
H55         H  0.10422822  0.45927882  0.57622385     0.08970
Cu56       Cu  0.11924660  0.30794108  0.57321715     0.44170
Cu57       Cu  0.15656512  0.39989335  0.58120470     0.41990
Cu58       Cu  0.17712652  0.30724791  0.55144067     0.43880
N59         N  0.13456542  0.25649167  0.56114930    -0.34650
N60         N  0.15412249  0.25597246  0.55031293    -0.28900
C61         C  0.15568522  0.21825896  0.53901361    -0.05000
C62         C  0.13663632  0.19409890  0.54388560     0.07210
C63         C  0.12377060  0.21928028  0.55808277     0.01010
H64         H  0.16935710  0.20923316  0.52769338     0.08660
H65         H  0.10641788  0.21159347  0.56342523     0.07740
N66         N  0.19720883  0.36311191  0.55803617    -0.36100
N67         N  0.19017627  0.39618805  0.56966856    -0.28280
C68         C  0.20664942  0.42698912  0.56980104    -0.03520
C69         C  0.22464263  0.41291165  0.55701949     0.05090
C70         C  0.21838119  0.37215679  0.55047267     0.03180
H71         H  0.20559785  0.45725238  0.57890182     0.08290
H72         H  0.22800145  0.35078168  0.53997412     0.07120
N73         N  0.04012388  0.99344875  0.38649891    -0.27260
N74         N  0.05820446  0.02141292  0.38722593    -0.35120
C75         C  0.05071683  0.02569587  0.34703874     0.01080
C76         C  0.02705785  0.99902303  0.31996085     0.07100
C77         C  0.02069021  0.97928122  0.34580562    -0.06000
H78         H  0.06033934  0.04838760  0.33765035     0.07770
H79         H  0.00203461  0.95806938  0.33531805     0.08970
Cu80       Cu  0.08846096  0.05770483  0.44020949     0.44170
Cu81       Cu  0.03876282  0.97991628  0.43852820     0.41990
Cu82       Cu  0.08199900  0.04701458  0.52874849     0.43880
N83         N  0.10949920  0.09668449  0.49253230    -0.34650
N84         N  0.10610249  0.09308990  0.52407537    -0.28900
C85         C  0.11725884  0.12615357  0.54875989    -0.05000
C86         C  0.12850873  0.15170075  0.53233091     0.07210
C87         C  0.12341870  0.13204253  0.49679043     0.01010
H88         H  0.11541180  0.13227549  0.57501936     0.08660
H89         H  0.12674654  0.14416354  0.47340483     0.07740
N90         N  0.05332797  0.00233457  0.52492930    -0.36100
N91         N  0.03740079  0.97747018  0.49177166    -0.28280
C92         C  0.01973156  0.95357682  0.49776577    -0.03520
C93         C  0.02478625  0.96406956  0.53653339     0.05090
C94         C  0.04626988  0.99500499  0.55293123     0.03180
H95         H  0.00387921  0.93093564  0.47509969     0.08290
H96         H  0.05558198  0.01159773  0.58250673     0.07120
N97         N  0.11659760  0.51235955  0.07617573    -0.27260
N98         N  0.10194651  0.54599780  0.07205987    -0.35120
C99         C  0.07449472  0.53706349  0.06481446     0.01080
C100        C  0.07156674  0.49568372  0.06396986     0.07100
C101        C  0.09903872  0.48102963  0.07202691    -0.06000
H102        H  0.05731820  0.55907271  0.05875551     0.07770
H103        H  0.10591961  0.45011056  0.07436590     0.08970
Cu104      Cu  0.11873612  0.60185473  0.07170511     0.44170
Cu105      Cu  0.15720942  0.51116255  0.08023126     0.41990
Cu106      Cu  0.17948490  0.60486981  0.05477578     0.43880
N107        N  0.13463063  0.65391576  0.06122936    -0.34650
N108        N  0.15518038  0.65525339  0.05215501    -0.28900
C109        C  0.15678232  0.69322850  0.04124817    -0.05000
C110        C  0.13674349  0.71670402  0.04458109     0.07210
C111        C  0.12323713  0.69087507  0.05743831     0.01010
H112        H  0.17117836  0.70289583  0.03125419     0.08660
H113        H  0.10508869  0.69796109  0.06134566     0.07740
N114        N  0.19956417  0.54919378  0.06075170    -0.36100
N115        N  0.19147077  0.51558204  0.07032046    -0.28280
C116        C  0.20717818  0.48470599  0.06905284    -0.03520
C117        C  0.22594411  0.49942070  0.05790251     0.05090
C118        C  0.22091819  0.54046395  0.05346131     0.03180
H119        H  0.20472843  0.45376555  0.07526277     0.08290
H120        H  0.23117180  0.56215365  0.04408500     0.07120
N121        N  0.03927672  0.91728203  0.88587476    -0.27260
N122        N  0.05760034  0.88954689  0.88693691    -0.35120
C123        C  0.05012275  0.88525447  0.84679738     0.01080
C124        C  0.02620403  0.91167102  0.81937628     0.07100
C125        C  0.01968563  0.93129130  0.84498391    -0.06000
H126        H  0.05994839  0.86270877  0.83770083     0.07770
H127        H  0.00085113  0.95231086  0.83423306     0.08970
Cu128      Cu  0.08816747  0.85343562  0.94029503     0.44170
Cu129      Cu  0.03788435  0.93069881  0.93782808     0.41990
Cu130      Cu  0.08137848  0.86336301  0.02846889     0.43880
N131        N  0.10927580  0.81425916  0.99279554    -0.34650
N132        N  0.10567476  0.81749539  0.02414472    -0.28900
C133        C  0.11688857  0.78430587  0.04895824    -0.05000
C134        C  0.12843293  0.75909656  0.03285053     0.07210
C135        C  0.12341448  0.77903528  0.99733152     0.01010
H136        H  0.11492543  0.77788651  0.07510806     0.08660
H137        H  0.12693725  0.76717906  0.97412919     0.07740
N138        N  0.05275373  0.90806326  0.02455799    -0.36100
N139        N  0.03671381  0.93302815  0.99125114    -0.28280
C140        C  0.01914897  0.95695481  0.99730871    -0.03520
C141        C  0.02440281  0.94637171  0.03627792     0.05090
C142        C  0.04588593  0.91535331  0.05271790     0.03180
H143        H  0.00325226  0.97969580  0.97457875     0.08290
H144        H  0.05533804  0.89869234  0.08244345     0.07120
N145        N  0.41646530  0.39711605  0.01400373    -0.27260
N146        N  0.43113801  0.36348296  0.01816955    -0.35120
C147        C  0.45858033  0.37242619  0.02538988     0.01080
C148        C  0.46147967  0.41380650  0.02616652     0.07100
C149        C  0.43400133  0.42845140  0.01809579    -0.06000
H150        H  0.47577369  0.35042561  0.03148960     0.07770
H151        H  0.42710502  0.45936875  0.01571934     0.08970
Cu152      Cu  0.41440787  0.30762829  0.01866658     0.44170
Cu153      Cu  0.37586271  0.39830715  0.00997426     0.41990
Cu154      Cu  0.35371249  0.30464735  0.03569554     0.43880
N155        N  0.39862351  0.25559646  0.02937360    -0.34650
N156        N  0.37809825  0.25428190  0.03849300    -0.28900
C157        C  0.37658942  0.21634695  0.04958717    -0.05000
C158        C  0.39666302  0.19287019  0.04632886     0.07210
C159        C  0.41009291  0.21865760  0.03332081     0.01010
H160        H  0.36223701  0.20671097  0.05966375     0.08660
H161        H  0.42824654  0.21156813  0.02942495     0.07740
N162        N  0.33355295  0.36029922  0.02954860    -0.36100
N163        N  0.34160381  0.39389503  0.01989231    -0.28280
C164        C  0.32585955  0.42476754  0.02108518    -0.03520
C165        C  0.30711241  0.41006554  0.03227281     0.05090
C166        C  0.31218990  0.36903418  0.03681992     0.03180
H167        H  0.32827895  0.45569987  0.01481450     0.08290
H168        H  0.30197164  0.34736072  0.04626614     0.07120
N169        N  0.49483035  0.99303043  0.20597121    -0.27260
N170        N  0.47648425  0.02076624  0.20485459    -0.35120
C171        C  0.48402588  0.02521948  0.24501243     0.01080
C172        C  0.50801099  0.99890940  0.27250224     0.07100
C173        C  0.51449883  0.97918033  0.24691568    -0.06000
H174        H  0.47418267  0.04778979  0.25405735     0.07770
H175        H  0.03335353  0.95818517  0.25770182     0.08970
Cu176      Cu  0.44576236  0.05664607  0.15135683     0.44170
Cu177      Cu  0.49613974  0.97938564  0.15399155     0.41990
Cu178      Cu  0.45240481  0.04637720  0.06309463     0.43880
N179        N  0.42445646  0.09557057  0.09863226    -0.34650
N180        N  0.42799887  0.09220630  0.06723777    -0.28900
C181        C  0.41665228  0.12527075  0.04223530    -0.05000
C182        C  0.40508261  0.15053207  0.05826760     0.07210
C183        C  0.41022489  0.13075435  0.09394075     0.01010
H184        H  0.41854877  0.13158501  0.01600703     0.08660
H185        H  0.40672509  0.14270947  0.11713102     0.07740
N186        N  0.48112527  0.00175841  0.06712775    -0.36100
N187        N  0.49724184  0.97689565  0.10051594    -0.28280
C188        C  0.51483619  0.95298693  0.09449610    -0.03520
C189        C  0.50952496  0.96348458  0.05547048     0.05090
C190        C  0.48797719  0.99442906  0.03895889     0.03180
H191        H  0.03079777  0.93032852  0.11729243     0.08290
H192        H  0.47846295  0.01100977  0.00917027     0.07120
C193        C  0.27802704  0.48615239  0.07489659    -0.20280
C194        C  0.24625814  0.47615916  0.05080320    -0.06850
C195        C  0.23450564  0.44456606  0.02034169     0.14020
C196        C  0.25502566  0.42334311  0.01526052    -0.20330
C197        C  0.28679451  0.43333464  0.03935699    -0.06850
C198        C  0.29854632  0.46493037  0.06981363     0.14010
C199        C  0.33283941  0.47533402  0.09829201    -0.23680
H200        H  0.28688581  0.51030546  0.09828916     0.15300
H201        H  0.24616828  0.39918874  0.99186946     0.15330
C202        C  0.20021177  0.43416664  0.99185377    -0.23630
H203        H  0.33814632  0.49895643  0.12220471     0.05540
H204        H  0.34017843  0.48683973  0.07827687     0.08770
H205        H  0.34682479  0.44830582  0.11660156     0.08770
H206        H  0.18622884  0.46119997  0.97355564     0.08750
H207        H  0.19286851  0.42264477  0.01185805     0.08750
H208        H  0.19490534  0.41055630  0.96793010     0.05520
C209        C  0.00402934  0.42164513  0.01767153    -0.20280
C210        C  0.48900306  0.43626700  0.03543117    -0.06850
C211        C  0.50179119  0.46986860  0.06341743     0.14020
C212        C  0.02900557  0.48785567  0.07244422    -0.20330
C213        C  0.04403365  0.47323264  0.05468700    -0.06850
C214        C  0.03124312  0.43963303  0.02669668     0.14010
C215        C  0.04512719  0.42319855  0.00474815    -0.23680
H216        H  0.49424915  0.39592715  0.99627425     0.15300
H217        H  0.03878646  0.51357097  0.09384510     0.15330
C218        C  0.48790429  0.48630315  0.08536219    -0.23630
H219        H  0.02985256  0.40007638  0.98025555     0.05540
H220        H  0.06782796  0.40848772  0.02895169     0.08770
H221        H  0.04817483  0.44766239  0.98768777     0.08770
H222        H  0.48486615  0.46184161  0.10243444     0.08750
H223        H  0.46519737  0.50099843  0.06115349     0.08750
H224        H  0.50317176  0.50943679  0.10984346     0.05520
C225        C  0.25886590  0.49190371  0.52332066    -0.20280
C226        C  0.28822619  0.47514675  0.53987460    -0.06850
C227        C  0.29672504  0.43822151  0.56276955     0.14020
C228        C  0.27548419  0.41900665  0.56795156    -0.20330
C229        C  0.24612497  0.43576596  0.55140194    -0.06850
C230        C  0.23762470  0.47268882  0.52850137     0.14010
C231        C  0.20584318  0.49135627  0.50775643    -0.23680
H232        H  0.25237419  0.52014409  0.50577500     0.15300
H233        H  0.28197691  0.39076734  0.58549909     0.15330
C234        C  0.32850542  0.41955338  0.58350793    -0.23630
H235        H  0.20227376  0.51784857  0.48750017     0.05540
H236        H  0.20333789  0.50192917  0.53304519     0.08770
H237        H  0.18727399  0.46922222  0.48643312     0.08770
H238        H  0.34707568  0.44168236  0.60484208     0.08750
H239        H  0.33101118  0.40899692  0.55821450     0.08750
H240        H  0.33207217  0.39305116  0.60375102     0.05520
C241        C  0.01640682  0.42879999  0.51694322    -0.20280
C242        C  0.04443030  0.43448755  0.55833510    -0.06850
C243        C  0.04524043  0.46130881  0.58750959     0.14020
C244        C  0.01796094  0.48224576  0.57436639    -0.20330
C245        C  0.48993693  0.47655831  0.53297461    -0.06850
C246        C  0.48912698  0.44973686  0.50379974     0.14010
C247        C  0.45984498  0.44420385  0.45842234    -0.23680
H248        H  0.01602873  0.40832378  0.49461410     0.15300
H249        H  0.01833961  0.50272106  0.59669657     0.15330
C250        C  0.07452320  0.46684204  0.63288622    -0.23630
H251        H  0.46361892  0.42313657  0.43941302     0.05540
H252        H  0.45230428  0.47353527  0.44114911     0.08770
H253        H  0.44090866  0.43188815  0.45964162     0.08770
H254        H  0.09345969  0.47915333  0.63166461     0.08750
H255        H  0.08206267  0.43751128  0.65016092     0.08750
H256        H  0.07075101  0.48791251  0.65189497     0.05520
N257        N  0.91750355  0.51379645  0.51153945    -0.27260
N258        N  0.93175239  0.54792719  0.51577645    -0.35120
C259        C  0.95909042  0.53999002  0.52222388     0.01080
C260        C  0.96190907  0.49887911  0.52124907     0.07100
C261        C  0.93522180  0.48313045  0.51460378    -0.06000
H262        H  0.97625070  0.56236024  0.52903374     0.07770
H263        H  0.93012314  0.45175504  0.51502547     0.08970
Cu264      Cu  0.91515992  0.60308175  0.51824748     0.44170
Cu265      Cu  0.87780232  0.51110098  0.51011763     0.41990
Cu266      Cu  0.85725922  0.60368778  0.53997956     0.43880
N267        N  0.89985522  0.65449945  0.53039277    -0.34650
N268        N  0.88028480  0.65497947  0.54120651    -0.28900
C269        C  0.87872429  0.69266972  0.55255902    -0.05000
C270        C  0.89779002  0.71685860  0.54774805     0.07210
C271        C  0.91066288  0.69171701  0.53352925     0.01010
H272        H  0.86504087  0.70166018  0.56387185     0.08660
H273        H  0.92802507  0.69943333  0.52821395     0.07740
N274        N  0.83716024  0.54782469  0.53331371    -0.36100
N275        N  0.84418848  0.51476461  0.52165273    -0.28280
C276        C  0.82770829  0.48395503  0.52148965    -0.03520
C277        C  0.80971391  0.49801252  0.53427755     0.05090
C278        C  0.81598340  0.53876279  0.54086314     0.03180
H279        H  0.82875679  0.45369986  0.51236693     0.08290
H280        H  0.80636686  0.56012237  0.55138096     0.07120
N281        N  0.99421871  0.91738007  0.70543459    -0.27260
N282        N  0.97608027  0.88943244  0.70459287    -0.35120
C283        C  0.98350923  0.88508086  0.74474114     0.01080
C284        C  0.00719154  0.91168746  0.77191815     0.07100
C285        C  0.01363384  0.93146364  0.74616926    -0.06000
H286        H  0.97383757  0.86237402  0.75403920     0.07770
H287        H  0.53232944  0.95263476  0.75675043     0.08970
Cu288      Cu  0.94584010  0.85320429  0.65153871     0.44170
Cu289      Cu  0.99568248  0.93100199  0.65350313     0.41990
Cu290      Cu  0.95244758  0.86400289  0.56318177     0.43880
N291        N  0.92486359  0.81424435  0.59920453    -0.34650
N292        N  0.92831573  0.81788288  0.56771829    -0.28900
C293        C  0.91719740  0.78483373  0.54300820    -0.05000
C294        C  0.90591438  0.75924814  0.55936181     0.07210
C295        C  0.91094499  0.77886944  0.59488430     0.01010
H296        H  0.91909021  0.77875057  0.51678338     0.08660
H297        H  0.90757507  0.76671517  0.61821688     0.07740
N298        N  0.98114552  0.90868834  0.56709746    -0.36100
N299        N  0.99707901  0.93352004  0.60028507    -0.28280
C300        C  0.01476294  0.95742230  0.59432233    -0.03520
C301        C  0.00970887  0.94696307  0.55554545     0.05090
C302        C  0.98821291  0.91604334  0.53911252     0.03180
H303        H  0.53062332  0.98004444  0.61701243     0.08290
H304        H  0.97889585  0.89947692  0.50952041     0.07120
N305        N  0.61686492  0.39723314  0.57978639    -0.27260
N306        N  0.60262825  0.36310594  0.57560026    -0.35120
C307        C  0.57528927  0.37105108  0.56914678     0.01080
C308        C  0.57245797  0.41216522  0.57006467     0.07100
C309        C  0.59913813  0.42790680  0.57668297    -0.06000
H310        H  0.55813912  0.34868162  0.56237763     0.07770
H311        H  0.60422822  0.45927882  0.57622383     0.08970
Cu312      Cu  0.61924659  0.30794108  0.57321713     0.44170
Cu313      Cu  0.65656512  0.39989335  0.58120469     0.41990
Cu314      Cu  0.67712651  0.30724791  0.55144066     0.43880
N315        N  0.63456542  0.25649167  0.56114929    -0.34650
N316        N  0.65412249  0.25597246  0.55031292    -0.28900
C317        C  0.65568522  0.21825896  0.53901360    -0.05000
C318        C  0.63663632  0.19409890  0.54388559     0.07210
C319        C  0.62377060  0.21928028  0.55808276     0.01010
H320        H  0.66935710  0.20923316  0.52769337     0.08660
H321        H  0.60641788  0.21159347  0.56342522     0.07740
N322        N  0.69720883  0.36311190  0.55803616    -0.36100
N323        N  0.69017627  0.39618805  0.56966855    -0.28280
C324        C  0.70664942  0.42698912  0.56980103    -0.03520
C325        C  0.72464263  0.41291165  0.55701948     0.05090
C326        C  0.71838119  0.37215679  0.55047266     0.03180
H327        H  0.70559785  0.45725238  0.57890181     0.08290
H328        H  0.72800145  0.35078168  0.53997410     0.07120
N329        N  0.54012388  0.99344875  0.38649891    -0.27260
N330        N  0.55820445  0.02141292  0.38722593    -0.35120
C331        C  0.55071682  0.02569587  0.34703874     0.01080
C332        C  0.52705784  0.99902303  0.31996085     0.07100
C333        C  0.52069020  0.97928122  0.34580562    -0.06000
H334        H  0.56033933  0.04838760  0.33765034     0.07770
H335        H  0.50203460  0.95806938  0.33531805     0.08970
Cu336      Cu  0.58846096  0.05770483  0.44020949     0.44170
Cu337      Cu  0.53876281  0.97991629  0.43852820     0.41990
Cu338      Cu  0.58199900  0.04701458  0.52874849     0.43880
N339        N  0.60949920  0.09668449  0.49253229    -0.34650
N340        N  0.60610250  0.09308990  0.52407537    -0.28900
C341        C  0.61725884  0.12615357  0.54875989    -0.05000
C342        C  0.62850873  0.15170075  0.53233091     0.07210
C343        C  0.62341870  0.13204253  0.49679042     0.01010
H344        H  0.61541180  0.13227549  0.57501936     0.08660
H345        H  0.62674654  0.14416354  0.47340482     0.07740
N346        N  0.55332797  0.00233457  0.52492930    -0.36100
N347        N  0.53740079  0.97747018  0.49177166    -0.28280
C348        C  0.51973156  0.95357682  0.49776577    -0.03520
C349        C  0.52478626  0.96406956  0.53653340     0.05090
C350        C  0.54626989  0.99500499  0.55293124     0.03180
H351        H  0.50387921  0.93093564  0.47509970     0.08290
H352        H  0.55558199  0.01159773  0.58250674     0.07120
N353        N  0.61659760  0.51235955  0.07617573    -0.27260
N354        N  0.60194651  0.54599780  0.07205988    -0.35120
C355        C  0.57449472  0.53706349  0.06481447     0.01080
C356        C  0.57156674  0.49568372  0.06396986     0.07100
C357        C  0.59903872  0.48102963  0.07202691    -0.06000
H358        H  0.55731820  0.55907271  0.05875552     0.07770
H359        H  0.60591961  0.45011056  0.07436590     0.08970
Cu360      Cu  0.61873612  0.60185473  0.07170511     0.44170
Cu361      Cu  0.65720942  0.51116256  0.08023126     0.41990
Cu362      Cu  0.67948490  0.60486981  0.05477578     0.43880
N363        N  0.63463063  0.65391576  0.06122936    -0.34650
N364        N  0.65518038  0.65525339  0.05215502    -0.28900
C365        C  0.65678232  0.69322851  0.04124817    -0.05000
C366        C  0.63674349  0.71670402  0.04458109     0.07210
C367        C  0.62323713  0.69087507  0.05743831     0.01010
H368        H  0.67117835  0.70289583  0.03125419     0.08660
H369        H  0.60508869  0.69796109  0.06134567     0.07740
N370        N  0.69956417  0.54919378  0.06075170    -0.36100
N371        N  0.69147077  0.51558204  0.07032046    -0.28280
C372        C  0.70717818  0.48470599  0.06905284    -0.03520
C373        C  0.72594410  0.49942070  0.05790251     0.05090
C374        C  0.72091819  0.54046396  0.05346131     0.03180
H375        H  0.70472843  0.45376555  0.07526277     0.08290
H376        H  0.73117180  0.56215365  0.04408500     0.07120
N377        N  0.53927671  0.91728203  0.88587476    -0.27260
N378        N  0.55760033  0.88954689  0.88693691    -0.35120
C379        C  0.55012274  0.88525447  0.84679738     0.01080
C380        C  0.52620402  0.91167102  0.81937628     0.07100
C381        C  0.51968562  0.93129130  0.84498391    -0.06000
H382        H  0.55994837  0.86270877  0.83770083     0.07770
H383        H  0.50085112  0.95231086  0.83423306     0.08970
Cu384      Cu  0.58816745  0.85343562  0.94029503     0.44170
Cu385      Cu  0.53788435  0.93069881  0.93782808     0.41990
Cu386      Cu  0.58137847  0.86336301  0.02846889     0.43880
N387        N  0.60927579  0.81425915  0.99279554    -0.34650
N388        N  0.60567476  0.81749539  0.02414472    -0.28900
C389        C  0.61688857  0.78430587  0.04895824    -0.05000
C390        C  0.62843292  0.75909656  0.03285053     0.07210
C391        C  0.62341447  0.77903528  0.99733151     0.01010
H392        H  0.61492543  0.77788651  0.07510806     0.08660
H393        H  0.62693724  0.76717906  0.97412918     0.07740
N394        N  0.55275372  0.90806326  0.02455799    -0.36100
N395        N  0.53671380  0.93302815  0.99125115    -0.28280
C396        C  0.51914896  0.95695481  0.99730871    -0.03520
C397        C  0.52440280  0.94637171  0.03627792     0.05090
C398        C  0.54588592  0.91535331  0.05271790     0.03180
H399        H  0.50325225  0.97969580  0.97457875     0.08290
H400        H  0.55533804  0.89869234  0.08244345     0.07120
N401        N  0.91646530  0.39711605  0.01400373    -0.27260
N402        N  0.93113801  0.36348296  0.01816955    -0.35120
C403        C  0.95858033  0.37242619  0.02538988     0.01080
C404        C  0.96147967  0.41380650  0.02616652     0.07100
C405        C  0.93400133  0.42845140  0.01809580    -0.06000
H406        H  0.97577369  0.35042562  0.03148959     0.07770
H407        H  0.92710502  0.45936875  0.01571934     0.08970
Cu408      Cu  0.91440786  0.30762830  0.01866658     0.44170
Cu409      Cu  0.87586271  0.39830715  0.00997426     0.41990
Cu410      Cu  0.85371249  0.30464735  0.03569554     0.43880
N411        N  0.89862351  0.25559647  0.02937360    -0.34650
N412        N  0.87809826  0.25428191  0.03849300    -0.28900
C413        C  0.87658942  0.21634695  0.04958718    -0.05000
C414        C  0.89666303  0.19287019  0.04632887     0.07210
C415        C  0.91009291  0.21865760  0.03332081     0.01010
H416        H  0.86223702  0.20671097  0.05966375     0.08660
H417        H  0.92824654  0.21156813  0.02942495     0.07740
N418        N  0.83355295  0.36029922  0.02954861    -0.36100
N419        N  0.84160381  0.39389503  0.01989232    -0.28280
C420        C  0.82585955  0.42476754  0.02108519    -0.03520
C421        C  0.80711241  0.41006554  0.03227282     0.05090
C422        C  0.81218990  0.36903418  0.03681993     0.03180
H423        H  0.82827895  0.45569987  0.01481451     0.08290
H424        H  0.80197164  0.34736072  0.04626614     0.07120
N425        N  0.99483036  0.99303043  0.20597121    -0.27260
N426        N  0.97648426  0.02076625  0.20485459    -0.35120
C427        C  0.98402590  0.02521948  0.24501244     0.01080
C428        C  0.00801100  0.99890940  0.27250225     0.07100
C429        C  0.01449884  0.97918033  0.24691568    -0.06000
H430        H  0.97418268  0.04778979  0.25405735     0.07770
H431        H  0.53335352  0.95818517  0.25770181     0.08970
Cu432      Cu  0.94576237  0.05664608  0.15135684     0.44170
Cu433      Cu  0.99613975  0.97938564  0.15399155     0.41990
Cu434      Cu  0.95240482  0.04637721  0.06309463     0.43880
N435        N  0.92445647  0.09557057  0.09863226    -0.34650
N436        N  0.92799888  0.09220630  0.06723777    -0.28900
C437        C  0.91665229  0.12527075  0.04223531    -0.05000
C438        C  0.90508261  0.15053208  0.05826761     0.07210
C439        C  0.91022489  0.13075435  0.09394076     0.01010
H440        H  0.91854877  0.13158502  0.01600703     0.08660
H441        H  0.90672510  0.14270947  0.11713102     0.07740
N442        N  0.98112528  0.00175842  0.06712775    -0.36100
N443        N  0.99724185  0.97689565  0.10051594    -0.28280
C444        C  0.01483619  0.95298693  0.09449610    -0.03520
C445        C  0.00952497  0.96348459  0.05547048     0.05090
C446        C  0.98797720  0.99442906  0.03895889     0.03180
H447        H  0.53079777  0.93032852  0.11729243     0.08290
H448        H  0.97846296  0.01100977  0.00917027     0.07120
C449        C  0.77802704  0.48615239  0.07489659    -0.20280
C450        C  0.74625814  0.47615917  0.05080320    -0.06850
C451        C  0.73450564  0.44456606  0.02034169     0.14020
C452        C  0.75502566  0.42334312  0.01526052    -0.20330
C453        C  0.78679451  0.43333464  0.03935699    -0.06850
C454        C  0.79854632  0.46493037  0.06981364     0.14010
C455        C  0.83283941  0.47533402  0.09829201    -0.23680
H456        H  0.78688581  0.51030546  0.09828916     0.15300
H457        H  0.74616828  0.39918874  0.99186946     0.15330
C458        C  0.70021177  0.43416665  0.99185376    -0.23630
H459        H  0.83814632  0.49895643  0.12220472     0.05540
H460        H  0.84017843  0.48683973  0.07827688     0.08770
H461        H  0.84682479  0.44830582  0.11660157     0.08770
H462        H  0.68622884  0.46119998  0.97355564     0.08750
H463        H  0.69286850  0.42264477  0.01185805     0.08750
H464        H  0.69490534  0.41055631  0.96793009     0.05520
C465        C  0.50402934  0.42164512  0.01767153    -0.20280
C466        C  0.98900306  0.43626701  0.03543117    -0.06850
C467        C  0.00179119  0.46986861  0.06341743     0.14020
C468        C  0.52900558  0.48785567  0.07244422    -0.20330
C469        C  0.54403366  0.47323264  0.05468700    -0.06850
C470        C  0.53124312  0.43963303  0.02669668     0.14010
C471        C  0.54512719  0.42319855  0.00474815    -0.23680
H472        H  0.99424915  0.39592715  0.99627425     0.15300
H473        H  0.53878646  0.51357096  0.09384510     0.15330
C474        C  0.98790429  0.48630316  0.08536219    -0.23630
H475        H  0.52985256  0.40007639  0.98025555     0.05540
H476        H  0.56782796  0.40848772  0.02895169     0.08770
H477        H  0.54817483  0.44766240  0.98768778     0.08770
H478        H  0.98486615  0.46184162  0.10243444     0.08750
H479        H  0.96519737  0.50099844  0.06115349     0.08750
H480        H  0.00317176  0.50943680  0.10984345     0.05520
C481        C  0.75886590  0.49190371  0.52332065    -0.20280
C482        C  0.78822619  0.47514675  0.53987459    -0.06850
C483        C  0.79672504  0.43822150  0.56276952     0.14020
C484        C  0.77548419  0.41900664  0.56795154    -0.20330
C485        C  0.74612497  0.43576596  0.55140192    -0.06850
C486        C  0.73762470  0.47268882  0.52850136     0.14010
C487        C  0.70584319  0.49135628  0.50775643    -0.23680
H488        H  0.75237420  0.52014410  0.50577500     0.15300
H489        H  0.78197690  0.39076733  0.58549906     0.15330
C490        C  0.82850541  0.41955337  0.58350790    -0.23630
H491        H  0.70227376  0.51784858  0.48750017     0.05540
H492        H  0.70333790  0.50192918  0.53304519     0.08770
H493        H  0.68727399  0.46922224  0.48643312     0.08770
H494        H  0.84707568  0.44168233  0.60484205     0.08750
H495        H  0.83101116  0.40899690  0.55821446     0.08750
H496        H  0.83207216  0.39305114  0.60375098     0.05520
C497        C  0.51640681  0.42879999  0.51694322    -0.20280
C498        C  0.54443029  0.43448755  0.55833509    -0.06850
C499        C  0.54524044  0.46130882  0.58750958     0.14020
C500        C  0.51796094  0.48224577  0.57436638    -0.20330
C501        C  0.98993693  0.47655831  0.53297460    -0.06850
C502        C  0.98912699  0.44973686  0.50379974     0.14010
C503        C  0.95984499  0.44420386  0.45842233    -0.23680
H504        H  0.51602872  0.40832377  0.49461409     0.15300
H505        H  0.51833961  0.50272106  0.59669657     0.15330
C506        C  0.57452321  0.46684205  0.63288621    -0.23630
H507        H  0.96361893  0.42313658  0.43941301     0.05540
H508        H  0.95230429  0.47353528  0.44114911     0.08770
H509        H  0.94090867  0.43188816  0.45964160     0.08770
H510        H  0.59345970  0.47915334  0.63166459     0.08750
H511        H  0.58206268  0.43751130  0.65016091     0.08750
H512        H  0.57075102  0.48791252  0.65189496     0.05520
loop_ 
_geom_bond_atom_site_label_1 
_geom_bond_atom_site_label_2 
_geom_bond_distance 
_geom_bond_site_symmetry_2 
_ccdc_geom_bond_type 
N1            N2   1.321       .  A
N1            C5   1.345       .  A
N1           Cu9   2.073       .  S
N2            C3   1.344       .  A
N2           Cu8   2.064       .  S
C3            C4   1.381       .  A
C3            H6   1.082       .  S
C4            C5   1.383       .  A
C4          C245   1.474       .  S
C5            H7   1.082       .  S
Cu8          N11   2.064       .  S
Cu9          N19   2.074       .  S
Cu10         N12   2.083       .  S
Cu10         N18   2.084       .  S
N11          N12   1.322       .  A
N11          C15   1.341       .  A
N12          C13   1.349       .  A
C13          C14   1.385       .  A
C13          H16   1.082       .  S
C14          C15   1.379       .  A
C14          C38   1.468       .  S
C15          H17   1.082       .  S
N18          N19   1.323       .  A
N18          C22   1.346       .  A
N19          C20   1.344       .  A
C20          C21   1.384       .  A
C20          H23   1.080       .  S
C21          C22   1.386       .  A
C21         C226   1.485       .  S
C22          H24   1.082       .  S
N25          N26   1.324       .  A
N25          C29   1.346       .  A
N25         Cu33   2.075       .  S
N26          C27   1.344       .  A
N26         Cu32   2.076       .  S
C27          C28   1.380       .  A
C27          H30   1.082       .  S
C28          C29   1.380       .  A
C28         C380   1.462       .  S
C29         H287   1.082       .  S
H31         C285   1.082       .  S
Cu32         N35   2.075       .  S
Cu33         N43   2.075       .  S
Cu34         N36   2.069       .  S
Cu34         N42   2.068       .  S
N35          N36   1.322       .  A
N35          C39   1.348       .  A
N36          C37   1.342       .  A
C37          C38   1.381       .  A
C37          H40   1.082       .  S
C38          C39   1.384       .  A
C39          H41   1.082       .  S
N42          N43   1.321       .  A
N42          C46   1.345       .  A
N43          C44   1.346       .  A
C44          C45   1.385       .  A
C44         H303   1.081       .  S
C45          C46   1.382       .  A
C45         C349   1.472       .  S
C46          H48   1.081       .  S
H47         C300   1.081       .  S
N49          N50   1.321       .  A
N49          C53   1.345       .  A
N49         Cu57   2.073       .  S
N50          C51   1.344       .  A
N50         Cu56   2.064       .  S
C51          C52   1.381       .  A
C51          H54   1.082       .  S
C52          C53   1.383       .  A
C52         C242   1.474       .  S
C53          H55   1.082       .  S
Cu56         N59   2.064       .  S
Cu57         N67   2.074       .  S
Cu58         N60   2.083       .  S
Cu58         N66   2.084       .  S
N59          N60   1.322       .  A
N59          C63   1.341       .  A
N60          C61   1.349       .  A
C61          C62   1.385       .  A
C61          H64   1.082       .  S
C62          C63   1.379       .  A
C62          C86   1.468       .  S
C63          H65   1.082       .  S
N66          N67   1.323       .  A
N66          C70   1.346       .  A
N67          C68   1.344       .  A
C68          C69   1.384       .  A
C68          H71   1.080       .  S
C69          C70   1.386       .  A
C69         C229   1.485       .  S
C70          H72   1.082       .  S
N73          N74   1.324   1_565  A
N73          C77   1.346       .  A
N73         Cu81   2.075       .  S
N74          C75   1.344       .  A
N74         Cu80   2.076       .  S
C75          C76   1.380   1_545  A
C75          H78   1.082       .  S
C76          C77   1.380       .  A
C76         C428   1.462       .  S
C77          H79   1.082       .  S
Cu80         N83   2.075       .  S
Cu81         N91   2.075       .  S
Cu82         N84   2.069       .  S
Cu82         N90   2.068       .  S
N83          N84   1.322       .  A
N83          C87   1.348       .  A
N84          C85   1.342       .  A
C85          C86   1.381       .  A
C85          H88   1.082       .  S
C86          C87   1.384       .  A
C87          H89   1.082       .  S
N90          N91   1.321   1_545  A
N90          C94   1.345   1_545  A
N91          C92   1.346       .  A
C92          C93   1.385       .  A
C92          H95   1.081       .  S
C93          C94   1.383       .  A
C93         C301   1.472       .  S
C94          H96   1.081   1_565  S
N97          N98   1.319       .  A
N97         C101   1.344       .  A
N97        Cu105   2.064       .  S
N98          C99   1.343       .  A
N98        Cu104   2.065       .  S
C99         C100   1.386       .  A
C99         H102   1.082       .  S
C100        C101   1.386       .  A
C100        C213   1.484       .  S
C101        H103   1.079       .  S
Cu104       N107   2.065       .  S
Cu105       N115   2.065       .  S
Cu106       N108   2.083       .  S
Cu106       N114   2.083       .  S
N107        N108   1.323       .  A
N107        C111   1.341       .  A
N108        C109   1.348       .  A
C109        C110   1.384       .  A
C109        H112   1.082       .  S
C110        C111   1.379       .  A
C110        C134   1.467       .  S
C111        H113   1.082       .  S
N114        N115   1.323       .  A
N114        C118   1.347       .  A
N115        C116   1.343       .  A
C116        C117   1.380       .  A
C116        H119   1.082       .  S
C117        C118   1.384       .  A
C117        C194   1.476       .  S
C118        H120   1.082       .  S
N121        N122   1.324       .  A
N121        C125   1.346       .  A
N121       Cu129   2.076       .  S
N122        C123   1.344       .  A
N122       Cu128   2.075       .  S
C123        C124   1.380       .  A
C123        H126   1.082       .  S
C124        C125   1.380       .  A
C124        C284   1.462       .  S
C125        H127   1.082       .  S
Cu128       N131   2.074       .  S
Cu129       N139   2.076       .  S
Cu130       N132   2.068       .  S
Cu130       N138   2.068       .  S
N131        N132   1.322   1_556  A
N131        C135   1.347       .  A
N132        C133   1.342       .  A
C133        C134   1.380       .  A
C133        H136   1.082       .  S
C134        C135   1.384   1_554  A
C135        H137   1.083       .  S
N138        N139   1.321   1_554  A
N138        C142   1.345       .  A
N139        C140   1.346       .  A
C140        C141   1.385   1_556  A
C140        H143   1.081       .  S
C141        C142   1.382       .  A
C141        C445   1.472       .  S
C142        H144   1.081       .  S
N145        N146   1.319       .  A
N145        C149   1.344       .  A
N145       Cu153   2.064       .  S
N146        C147   1.343       .  A
N146       Cu152   2.065       .  S
C147        C148   1.386       .  A
C147        H150   1.082       .  S
C148        C149   1.386       .  A
C148        C210   1.484       .  S
C149        H151   1.079       .  S
Cu152       N155   2.065       .  S
Cu153       N163   2.065       .  S
Cu154       N156   2.082       .  S
Cu154       N162   2.083       .  S
N155        N156   1.323       .  A
N155        C159   1.341       .  A
N156        C157   1.348       .  A
C157        C158   1.384       .  A
C157        H160   1.082       .  S
C158        C159   1.379       .  A
C158        C182   1.467       .  S
C159        H161   1.082       .  S
N162        N163   1.323       .  A
N162        C166   1.347       .  A
N163        C164   1.343       .  A
C164        C165   1.380       .  A
C164        H167   1.082       .  S
C165        C166   1.384       .  A
C165        C197   1.476       .  S
C166        H168   1.082       .  S
N169        N170   1.324   1_565  A
N169        C173   1.346       .  A
N169       Cu177   2.076       .  S
N170        C171   1.344       .  A
N170       Cu176   2.075       .  S
C171        C172   1.380   1_545  A
C171        H174   1.082       .  S
C172        C173   1.380       .  A
C172        C332   1.462       .  S
C173        H431   1.082       .  S
H175        C429   1.082       .  S
Cu176       N179   2.074       .  S
Cu177       N187   2.076       .  S
Cu178       N180   2.068       .  S
Cu178       N186   2.068       .  S
N179        N180   1.322       .  A
N179        C183   1.347       .  A
N180        C181   1.342       .  A
C181        C182   1.380       .  A
C181        H184   1.082       .  S
C182        C183   1.384       .  A
C183        H185   1.083       .  S
N186        N187   1.321   1_545  A
N186        C190   1.345   1_545  A
N187        C188   1.346       .  A
C188        C189   1.385       .  A
C188        H447   1.081       .  S
C189        C190   1.382       .  A
C189        C397   1.472       .  S
C190        H192   1.081   1_565  S
H191        C444   1.081       .  S
C193        C194   1.401       .  A
C193        C198   1.404       .  A
C193        H200   1.084       .  S
C194        C195   1.415       .  A
C195        C196   1.404       .  A
C195        C202   1.507   1_554  S
C196        C197   1.401       .  A
C196        H201   1.084   1_554  S
C197        C198   1.415       .  A
C198        C199   1.507       .  S
C199        H203   1.111       .  S
C199        H204   1.108       .  S
C199        H205   1.110       .  S
C202        H206   1.110       .  S
C202        H207   1.108   1_556  S
C202        H208   1.111       .  S
C209        C214   1.403       .  A
C209        C466   1.403   1_455  A
C209        H472   1.084   1_454  S
C210        C211   1.417       .  A
C210        C465   1.403       .  A
C211        C468   1.403       .  A
C211        C218   1.507       .  S
C212        C213   1.403       .  A
C212        C467   1.403       .  A
C212        H217   1.084       .  S
C213        C214   1.417       .  A
C214        C215   1.507       .  S
C215        H219   1.111   1_554  S
C215        H220   1.107       .  S
C215        H221   1.110   1_554  S
H216        C465   1.084   1_556  S
C218        H222   1.110       .  S
C218        H223   1.107       .  S
C218        H224   1.111       .  S
C225        C226   1.403       .  A
C225        C230   1.405       .  A
C225        H232   1.084       .  S
C226        C227   1.417       .  A
C227        C228   1.405       .  A
C227        C234   1.507       .  S
C228        C229   1.403       .  A
C228        H233   1.084       .  S
C229        C230   1.417       .  A
C230        C231   1.507       .  S
C231        H235   1.111       .  S
C231        H236   1.107       .  S
C231        H237   1.110       .  S
C234        H238   1.110       .  S
C234        H239   1.107       .  S
C234        H240   1.111       .  S
C241        C242   1.403       .  A
C241        C502   1.403   1_455  A
C241        H248   1.085       .  S
C242        C243   1.411       .  A
C243        C244   1.403       .  A
C243        C250   1.506       .  S
C244        C501   1.403   1_455  A
C244        H249   1.085       .  S
C245        C246   1.411       .  A
C245        C500   1.403       .  A
C246        C497   1.403       .  A
C246        C247   1.506       .  S
C247        H251   1.111       .  S
C247        H252   1.111       .  S
C247        H253   1.109       .  S
C250        H254   1.109       .  S
C250        H255   1.111       .  S
C250        H256   1.111       .  S
N257        N258   1.321       .  A
N257        C261   1.345       .  A
N257       Cu265   2.073       .  S
N258        C259   1.344       .  A
N258       Cu264   2.064       .  S
C259        C260   1.381       .  A
C259        H262   1.082       .  S
C260        C261   1.383       .  A
C260        C501   1.474       .  S
C261        H263   1.082       .  S
Cu264       N267   2.064       .  S
Cu265       N275   2.074       .  S
Cu266       N268   2.083       .  S
Cu266       N274   2.084       .  S
N267        N268   1.322       .  A
N267        C271   1.341       .  A
N268        C269   1.349       .  A
C269        C270   1.385       .  A
C269        H272   1.082       .  S
C270        C271   1.379       .  A
C270        C294   1.468       .  S
C271        H273   1.082       .  S
N274        N275   1.323       .  A
N274        C278   1.346       .  A
N275        C276   1.344       .  A
C276        C277   1.384       .  A
C276        H279   1.080       .  S
C277        C278   1.386       .  A
C277        C482   1.485       .  S
C278        H280   1.082       .  S
N281        N282   1.324       .  A
N281        C285   1.346   1_655  A
N281       Cu289   2.075       .  S
N282        C283   1.344       .  A
N282       Cu288   2.076       .  S
C283        C284   1.380   1_655  A
C283        H286   1.082       .  S
C284        C285   1.380       .  A
Cu288       N291   2.075       .  S
Cu289       N299   2.075       .  S
Cu290       N292   2.069       .  S
Cu290       N298   2.068       .  S
N291        N292   1.322       .  A
N291        C295   1.348       .  A
N292        C293   1.342       .  A
C293        C294   1.381       .  A
C293        H296   1.082       .  S
C294        C295   1.384       .  A
C295        H297   1.082       .  S
N298        N299   1.321       .  A
N298        C302   1.345       .  A
N299        C300   1.346   1_655  A
C300        C301   1.385       .  A
C301        C302   1.382   1_455  A
C302        H304   1.081       .  S
N305        N306   1.321       .  A
N305        C309   1.345       .  A
N305       Cu313   2.073       .  S
N306        C307   1.344       .  A
N306       Cu312   2.064       .  S
C307        C308   1.381       .  A
C307        H310   1.082       .  S
C308        C309   1.383       .  A
C308        C498   1.474       .  S
C309        H311   1.082       .  S
Cu312       N315   2.064       .  S
Cu313       N323   2.074       .  S
Cu314       N316   2.083       .  S
Cu314       N322   2.084       .  S
N315        N316   1.322       .  A
N315        C319   1.341       .  A
N316        C317   1.349       .  A
C317        C318   1.385       .  A
C317        H320   1.082       .  S
C318        C319   1.379       .  A
C318        C342   1.468       .  S
C319        H321   1.082       .  S
N322        N323   1.323       .  A
N322        C326   1.346       .  A
N323        C324   1.344       .  A
C324        C325   1.384       .  A
C324        H327   1.080       .  S
C325        C326   1.386       .  A
C325        C485   1.485       .  S
C326        H328   1.082       .  S
N329        N330   1.324   1_565  A
N329        C333   1.346       .  A
N329       Cu337   2.075       .  S
N330        C331   1.344       .  A
N330       Cu336   2.076       .  S
C331        C332   1.380   1_545  A
C331        H334   1.082       .  S
C332        C333   1.380       .  A
C333        H335   1.082       .  S
Cu336       N339   2.075       .  S
Cu337       N347   2.075       .  S
Cu338       N340   2.069       .  S
Cu338       N346   2.068       .  S
N339        N340   1.322       .  A
N339        C343   1.348       .  A
N340        C341   1.342       .  A
C341        C342   1.381       .  A
C341        H344   1.082       .  S
C342        C343   1.384       .  A
C343        H345   1.082       .  S
N346        N347   1.321   1_545  A
N346        C350   1.345   1_545  A
N347        C348   1.346       .  A
C348        C349   1.385       .  A
C348        H351   1.081       .  S
C349        C350   1.383       .  A
C350        H352   1.081   1_565  S
N353        N354   1.319       .  A
N353        C357   1.344       .  A
N353       Cu361   2.064       .  S
N354        C355   1.343       .  A
N354       Cu360   2.065       .  S
C355        C356   1.386       .  A
C355        H358   1.082       .  S
C356        C357   1.386       .  A
C356        C469   1.484       .  S
C357        H359   1.079       .  S
Cu360       N363   2.065       .  S
Cu361       N371   2.065       .  S
Cu362       N364   2.083       .  S
Cu362       N370   2.083       .  S
N363        N364   1.323       .  A
N363        C367   1.341       .  A
N364        C365   1.348       .  A
C365        C366   1.384       .  A
C365        H368   1.082       .  S
C366        C367   1.379       .  A
C366        C390   1.467       .  S
C367        H369   1.082       .  S
N370        N371   1.323       .  A
N370        C374   1.347       .  A
N371        C372   1.343       .  A
C372        C373   1.380       .  A
C372        H375   1.082       .  S
C373        C374   1.384       .  A
C373        C450   1.476       .  S
C374        H376   1.082       .  S
N377        N378   1.324       .  A
N377        C381   1.346       .  A
N377       Cu385   2.076       .  S
N378        C379   1.344       .  A
N378       Cu384   2.075       .  S
C379        C380   1.380       .  A
C379        H382   1.082       .  S
C380        C381   1.380       .  A
C381        H383   1.082       .  S
Cu384       N387   2.074       .  S
Cu385       N395   2.076       .  S
Cu386       N388   2.068       .  S
Cu386       N394   2.068       .  S
N387        N388   1.322   1_556  A
N387        C391   1.347       .  A
N388        C389   1.342       .  A
C389        C390   1.380       .  A
C389        H392   1.082       .  S
C390        C391   1.384   1_554  A
C391        H393   1.083       .  S
N394        N395   1.321   1_554  A
N394        C398   1.345       .  A
N395        C396   1.346       .  A
C396        C397   1.385   1_556  A
C396        H399   1.081       .  S
C397        C398   1.382       .  A
C398        H400   1.081       .  S
N401        N402   1.319       .  A
N401        C405   1.344       .  A
N401       Cu409   2.064       .  S
N402        C403   1.343       .  A
N402       Cu408   2.065       .  S
C403        C404   1.386       .  A
C403        H406   1.082       .  S
C404        C405   1.386       .  A
C404        C466   1.484       .  S
C405        H407   1.079       .  S
Cu408       N411   2.065       .  S
Cu409       N419   2.065       .  S
Cu410       N412   2.082       .  S
Cu410       N418   2.083       .  S
N411        N412   1.323       .  A
N411        C415   1.341       .  A
N412        C413   1.348       .  A
C413        C414   1.384       .  A
C413        H416   1.082       .  S
C414        C415   1.379       .  A
C414        C438   1.467       .  S
C415        H417   1.082       .  S
N418        N419   1.323       .  A
N418        C422   1.347       .  A
N419        C420   1.343       .  A
C420        C421   1.380       .  A
C420        H423   1.082       .  S
C421        C422   1.384       .  A
C421        C453   1.476       .  S
C422        H424   1.082       .  S
N425        N426   1.324   1_565  A
N425        C429   1.346   1_655  A
N425       Cu433   2.076       .  S
N426        C427   1.344       .  A
N426       Cu432   2.075       .  S
C427        C428   1.380   1_645  A
C427        H430   1.082       .  S
C428        C429   1.380       .  A
Cu432       N435   2.074       .  S
Cu433       N443   2.076       .  S
Cu434       N436   2.068       .  S
Cu434       N442   2.068       .  S
N435        N436   1.322       .  A
N435        C439   1.347       .  A
N436        C437   1.342       .  A
C437        C438   1.380       .  A
C437        H440   1.082       .  S
C438        C439   1.384       .  A
C439        H441   1.083       .  S
N442        N443   1.321   1_545  A
N442        C446   1.345   1_545  A
N443        C444   1.346   1_655  A
C444        C445   1.385       .  A
C445        C446   1.382   1_455  A
C446        H448   1.081   1_565  S
C449        C450   1.401       .  A
C449        C454   1.404       .  A
C449        H456   1.084       .  S
C450        C451   1.415       .  A
C451        C452   1.404       .  A
C451        C458   1.507   1_554  S
C452        C453   1.401       .  A
C452        H457   1.084   1_554  S
C453        C454   1.415       .  A
C454        C455   1.507       .  S
C455        H459   1.111       .  S
C455        H460   1.108       .  S
C455        H461   1.110       .  S
C458        H462   1.110       .  S
C458        H463   1.108   1_556  S
C458        H464   1.111       .  S
C465        C470   1.403       .  A
C466        C467   1.417   1_655  A
C467        C474   1.507   1_455  S
C468        C469   1.403       .  A
C468        H473   1.084       .  S
C469        C470   1.417       .  A
C470        C471   1.507       .  S
C471        H475   1.111   1_554  S
C471        H476   1.107       .  S
C471        H477   1.110   1_554  S
C474        H478   1.110       .  S
C474        H479   1.107       .  S
C474        H480   1.111   1_655  S
C481        C482   1.403       .  A
C481        C486   1.405       .  A
C481        H488   1.084       .  S
C482        C483   1.417       .  A
C483        C484   1.405       .  A
C483        C490   1.507       .  S
C484        C485   1.403       .  A
C484        H489   1.084       .  S
C485        C486   1.417       .  A
C486        C487   1.507       .  S
C487        H491   1.111       .  S
C487        H492   1.107       .  S
C487        H493   1.110       .  S
C490        H494   1.110       .  S
C490        H495   1.107       .  S
C490        H496   1.111       .  S
C497        C498   1.403       .  A
C497        H504   1.085       .  S
C498        C499   1.411       .  A
C499        C500   1.403       .  A
C499        C506   1.506       .  S
C500        H505   1.085       .  S
C501        C502   1.411       .  A
C502        C503   1.506       .  S
C503        H507   1.111       .  S
C503        H508   1.111       .  S
C503        H509   1.109       .  S
C506        H510   1.109       .  S
C506        H511   1.111       .  S
C506        H512   1.111       .  S
