geometry optimzed in LAMMPS
_audit_creation_date              2020-11-30 
_audit_creation_method            'lammps2cif' 
_symmetry_space_group_name_H-M    'P1' 
_symmetry_Int_Tables_number       1 
_symmetry_cell_setting            triclinic 
loop_ 
_symmetry_equiv_pos_as_xyz 
  x,y,z 
_cell_length_a                    45.32433721 
_cell_length_b                    45.53641865003268 
_cell_length_c                    45.17244092681698 
_cell_angle_alpha                 90.58743670950862 
_cell_angle_beta                  90.05425720676367 
_cell_angle_gamma                 90.03582234419417 
loop_ 
_atom_site_label 
_atom_site_type_symbol 
_atom_site_fract_x 
_atom_site_fract_y 
_atom_site_fract_z 
_atom_site_charge 
C1          C  0.24367837  0.98527805  0.64473645     0.87000
C2          C  0.24642787  0.95875725  0.62357673    -0.53300
C3          C  0.27115976  0.95927427  0.60618301     0.09900
C4          C  0.29073086  0.98647145  0.61172135     0.20800
C5          C  0.27267296  0.98541999  0.66230124    -0.54000
C6          C  0.29749439  0.98571744  0.64516655     0.10000
C7          C  0.24537494  0.01227255  0.62478982    -0.53500
C8          C  0.26997490  0.01296247  0.60737904     0.10600
H9          H  0.23086182  0.94060925  0.62331781     0.15100
H10         H  0.31095948  0.98698737  0.59789563     0.00800
H11         H  0.27343182  0.98279231  0.68616732     0.15400
H12         H  0.22842403  0.02909895  0.62411996     0.15200
C13         C  0.36292869  0.72613920  0.51185196     0.87000
C14         C  0.38807351  0.72416106  0.53463590    -0.53300
C15         C  0.40701624  0.74766750  0.53445916     0.09900
C16         C  0.39859261  0.77104179  0.51132892     0.20800
C17         C  0.34782239  0.75552924  0.51857892    -0.54000
C18         C  0.36631340  0.77922895  0.51873594     0.10000
C19         C  0.37842122  0.73047053  0.48207392    -0.53500
C20         C  0.39730204  0.75380824  0.48173018     0.10600
H21         H  0.39012476  0.70615855  0.55008205     0.15100
H22         H  0.41352193  0.79026298  0.51061319     0.00800
H23         H  0.32446160  0.75730835  0.52367659     0.15400
H24         H  0.37570468  0.71563201  0.46329415     0.15200
C25         C  0.49418226  0.84154405  0.76304469     0.87000
C26         C  0.46775587  0.86275168  0.76250898    -0.53300
C27         C  0.46736253  0.88113531  0.73860122     0.09900
C28         C  0.49442669  0.87704760  0.71813296     0.20800
C29         C  0.49351381  0.82595985  0.73275820    -0.54000
C30         C  0.49349332  0.84421904  0.70898845     0.10000
C31         C  0.52131018  0.86152319  0.76209416    -0.53500
C32         C  0.52130647  0.88063152  0.73894889     0.10600
H33         H  0.45123781  0.86310619  0.77978536     0.15100
H34         H  0.49531871  0.89215534  0.69914614     0.00800
H35         H  0.49206819  0.80225573  0.73024632     0.15400
H36         H  0.53832430  0.86144364  0.77904216     0.15200
C37         C  0.99317324  0.63995805  0.23219029     0.87000
C38         C  0.96645767  0.61922480  0.23409717    -0.53300
C39         C  0.96619386  0.60226558  0.25900554     0.09900
C40         C  0.99358085  0.60679055  0.27878173     0.20800
C41         C  0.99300776  0.65711487  0.26154559    -0.54000
C42         C  0.99332364  0.63994061  0.28615722     0.10000
C43         C  0.02009905  0.61967838  0.23387091    -0.53500
C44         C  0.02016288  0.60188279  0.25801240     0.10600
H45         H  0.94944720  0.61831084  0.21725069     0.15100
H46         H  0.99394327  0.59277079  0.29874266     0.00800
H47         H  0.99055993  0.68083063  0.26263298     0.15400
H48         H  0.03704115  0.61866592  0.21690830     0.15200
C49         C  0.74426045  0.50191519  0.36162366     0.87000
C50         C  0.75028224  0.52656993  0.38456219    -0.53300
C51         C  0.77567712  0.52282334  0.40093523     0.09900
C52         C  0.79305811  0.49518602  0.39125789     0.20800
C53         C  0.77184158  0.50137596  0.34221218    -0.54000
C54         C  0.79755154  0.49851405  0.35746364     0.10000
C55         C  0.74544218  0.47333553  0.37931025    -0.53500
C56         C  0.77087780  0.46983500  0.39503361     0.10600
H57         H  0.73616418  0.54570251  0.38661570     0.15100
H58         H  0.81388567  0.49130405  0.40343670     0.00800
H59         H  0.77130441  0.50603407  0.31866030     0.15400
H60         H  0.72734119  0.45773545  0.38020326     0.15200
C61         C  0.85779469  0.75996691  0.48916902     0.87000
C62         C  0.87853085  0.75790517  0.46234349    -0.53300
C63         C  0.89602068  0.73338763  0.46200001     0.09900
C64         C  0.89200323  0.71404173  0.48955180     0.20800
C65         C  0.84111157  0.73068964  0.48930653    -0.54000
C66         C  0.85887930  0.70655672  0.48927960     0.10000
C67         C  0.87830864  0.75893118  0.51613095    -0.53500
C68         C  0.89655994  0.73504022  0.51633104     0.10600
H69         H  0.87897868  0.77439966  0.44525456     0.15100
H70         H  0.90635687  0.69430401  0.48957078     0.00800
H71         H  0.81725668  0.72912336  0.48738712     0.15400
H72         H  0.87887359  0.77592329  0.53316489     0.15200
C73         C  0.48837655  0.39244241  0.76183388     0.87000
C74         C  0.49496094  0.37496222  0.79013663    -0.53300
C75         C  0.52175143  0.36109700  0.78971282     0.09900
C76         C  0.53897099  0.36547950  0.76092256     0.20800
C77         C  0.51493035  0.41284437  0.75768281    -0.54000
C78         C  0.54187700  0.39942379  0.75906675     0.10000
C79         C  0.49103573  0.37014703  0.73657637    -0.53500
C80         C  0.51743871  0.35573038  0.73593437     0.10600
H81         H  0.48018701  0.37429153  0.80903307     0.15100
H82         H  0.56017834  0.35337776  0.76072908     0.00800
H83         H  0.51195433  0.43608809  0.75449231     0.15400
H84         H  0.47337744  0.36571579  0.72088463     0.15200
C85         C  0.74787091  0.50292253  0.89819696     0.87000
C86         C  0.72189013  0.49908808  0.87675098    -0.53300
C87         C  0.72483974  0.47574044  0.85779049     0.09900
C88         C  0.75394383  0.45857914  0.86177355     0.20800
C89         C  0.75059866  0.47318172  0.91343397    -0.54000
C90         C  0.75350441  0.44918711  0.89485325     0.10000
C91         C  0.77526390  0.50507444  0.87856119    -0.53500
C92         C  0.77850425  0.48206542  0.85926753     0.10600
H93         H  0.70214041  0.51257032  0.87759993     0.15100
H94         H  0.75706985  0.44089841  0.84529444     0.00800
H95         H  0.74784913  0.47154553  0.93721245     0.15400
H96         H  0.79052918  0.52345401  0.87945193     0.15200
C97         C  0.61187034  0.26111507  0.01916913     0.87000
C98         C  0.63574879  0.28515400  0.01783455    -0.53300
C99         C  0.65359675  0.28296212  0.99345879     0.09900
C100        C  0.64574859  0.25715897  0.97270285     0.20800
C101        C  0.59529911  0.26375773  0.98971912    -0.54000
C102        C  0.61291468  0.26188375  0.96523479     0.10000
C103        C  0.62874608  0.23193321  0.01676608    -0.53500
C104        C  0.64659865  0.22987938  0.99248622     0.10600
H105        H  0.63753946  0.30295374  0.03391701     0.15100
H106        H  0.66015872  0.25562295  0.95286463     0.00800
H107        H  0.57195095  0.26899703  0.98849099     0.15400
H108        H  0.62739324  0.21478247  0.03323771     0.15200
C109        C  0.27770341  0.00476047  0.14291638     0.87000
C110        C  0.27490765  0.02977755  0.12060344    -0.53300
C111        C  0.24990571  0.02813032  0.10367884     0.09900
C112        C  0.23081900  0.00095582  0.10997517     0.20800
C113        C  0.24860785  0.00563780  0.16020134    -0.54000
C114        C  0.22319317  0.00405440  0.14338640     0.10000
C115        C  0.27630995  0.97652410  0.12431676    -0.53500
C116        C  0.25196655  0.97464574  0.10674910     0.10600
H117        H  0.29072388  0.04758457  0.11912702     0.15100
H118        H  0.21238404  0.99843864  0.09453300     0.00800
H119        H  0.24900128  0.00989713  0.18381605     0.15400
H120        H  0.29357709  0.95999726  0.12415361     0.15200
C121        C  0.15412377  0.25069337  0.01201219     0.87000
C122        C  0.13411424  0.24695282  0.03914918    -0.53300
C123        C  0.11612012  0.22283990  0.03748168     0.09900
C124        C  0.11882421  0.20557800  0.00810895     0.20800
C125        C  0.17018214  0.22109271  0.00899438    -0.54000
C126        C  0.15182988  0.19721851  0.00692669     0.10000
C127        C  0.13315423  0.25178277  0.98554566    -0.53500
C128        C  0.11432941  0.22847491  0.98348077     0.10600
H129        H  0.13505894  0.26135885  0.05841972     0.15100
H130        H  0.10367133  0.18645692  0.00640473     0.00800
H131        H  0.19394243  0.21904067  0.01114465     0.15400
H132        H  0.13281229  0.26992435  0.97011371     0.15200
C133        C  0.98581485  0.09323294  0.23670055     0.87000
C134        C  0.98824124  0.11382669  0.21014023    -0.53300
C135        C  0.01331157  0.13039141  0.21016741     0.09900
C136        C  0.03352135  0.12514180  0.23691347     0.20800
C137        C  0.01444777  0.07534036  0.23570120    -0.54000
C138        C  0.03972554  0.09181606  0.23585018     0.10000
C139        C  0.98875043  0.11322191  0.26419906    -0.53500
C140        C  0.01373172  0.13014397  0.26420186     0.10600
H141        H  0.97273158  0.11364290  0.19178801     0.15100
H142        H  0.05365910  0.13902808  0.23689731     0.00800
H143        H  0.01441688  0.05167941  0.23252583     0.15400
H144        H  0.97233657  0.11437537  0.28166587     0.15200
O145        O  0.54157435  0.92424002  0.71699922    -0.57300
C146        C  0.57983855  0.00937567  0.71158072     0.75300
O147        O  0.61970266  0.95867429  0.77585221    -0.58500
C148        C  0.54357440  0.90433002  0.73627529     0.75300
C149        C  0.63292995  0.92532745  0.69515647     0.77600
Cd150      Cd  0.58766492  0.95047404  0.73224449     1.37500
O151        O  0.55771784  0.99246933  0.71419998    -0.57300
O152        O  0.60977652  0.93661365  0.68442556    -0.56200
C153        C  0.60193849  0.97582379  0.78910307     0.77600
O154        O  0.63466100  0.92520069  0.72311325    -0.58500
O155        O  0.60484829  0.99772044  0.71506631    -0.57000
O156        O  0.56540475  0.90609294  0.75369828    -0.57000
O157        O  0.57644890  0.97775138  0.77790105    -0.56100
O158        O  0.54456570  0.24381544  0.70172969    -0.57300
C159        C  0.52316630  0.33206648  0.71392179     0.75300
O160        O  0.54444088  0.31140556  0.62357088    -0.58500
C161        C  0.55225958  0.22710272  0.68045304     0.75300
C162        C  0.47576497  0.26268204  0.64981313     0.77600
Cd163      Cd  0.53164887  0.28598655  0.66980042     1.37500
O164        O  0.54452595  0.31430944  0.71613309    -0.57300
O165        O  0.48380902  0.26193887  0.67659257    -0.56200
C166        C  0.57198896  0.31218127  0.62837595     0.77600
O167        O  0.49242707  0.27701473  0.63264213    -0.58500
O168        O  0.50626242  0.32826766  0.69190145    -0.57000
O169        O  0.55294639  0.23883843  0.65528011    -0.57000
O170        O  0.58049028  0.30113054  0.65250143    -0.56100
O171        O  0.32026800  0.02522380  0.24824462    -0.57300
C172        C  0.30416417  0.00729211  0.16308462     0.75300
O173        O  0.39783476  0.02138261  0.17792034    -0.58500
C174        C  0.34142700  0.02623194  0.26656486     0.75300
C175        C  0.36949320  0.95197320  0.22237555     0.77600
Cd176      Cd  0.35205612  0.01019357  0.20552517     1.37500
O177        O  0.30718603  0.02882947  0.18076345    -0.57300
O178        O  0.34303288  0.96069450  0.22412125    -0.56200
C179        C  0.39648266  0.04895048  0.18140655     0.77600
O180        O  0.38731396  0.96931996  0.20990800    -0.58500
O181        O  0.32390483  0.98768569  0.16416506    -0.57000
O182        O  0.36687732  0.02220211  0.25601568    -0.57000
O183        O  0.37409480  0.05851297  0.19518129    -0.56100
O184        O  0.29571678  0.04659431  0.49987280    -0.57300
C185        C  0.27499298  0.03612304  0.58522931     0.75300
O186        O  0.29463345  0.12787861  0.56506194    -0.58500
C187        C  0.30835707  0.06554404  0.48391663     0.75300
C188        C  0.22937168  0.10014252  0.51327553     0.77600
Cd189      Cd  0.28369589  0.08052049  0.54051850     1.37500
O190        O  0.29714975  0.03575024  0.56827940    -0.57300
O191        O  0.24031684  0.07498235  0.50871330    -0.56200
C192        C  0.32226136  0.12410122  0.56654545     0.77600
O193        O  0.24254916  0.11584337  0.53246003    -0.58500
O194        O  0.25706269  0.05710404  0.58181136    -0.57000
O195        O  0.31191772  0.09065440  0.49555269    -0.57000
O196        O  0.33168425  0.09975931  0.55661510    -0.56100
O197        O  0.81777394  0.78736190  0.46767739    -0.57300
C198        C  0.73458394  0.82387083  0.46552580     0.75300
O199        O  0.79000165  0.86676278  0.52765960    -0.58500
C200        C  0.83702270  0.78570545  0.48788912     0.75300
C201        C  0.81949926  0.87614954  0.44634860     0.77600
Cd202      Cd  0.79461815  0.83298954  0.48530902     1.37500
O203        O  0.75289695  0.80293738  0.46665306    -0.57300
O204        O  0.80735984  0.85292009  0.43674216    -0.56200
C205        C  0.77600784  0.84893565  0.54383518     0.77600
O206        O  0.82099559  0.87898425  0.47419516    -0.58500
O207        O  0.74462983  0.84891251  0.47242824    -0.57000
O208        O  0.83723900  0.80632842  0.50688576    -0.57000
O209        O  0.77365974  0.82297360  0.53391640    -0.56100
O210        O  0.43651510  0.77935624  0.45734679    -0.57300
C211        C  0.51885990  0.78992508  0.42353260     0.75300
O212        O  0.47103534  0.72152032  0.37827240    -0.58500
C213        C  0.41777368  0.75879671  0.45682741     0.75300
C214        C  0.43470854  0.80058068  0.36634162     0.77600
Cd215      Cd  0.46178441  0.76448290  0.41100036     1.37500
O216        O  0.50071244  0.78401368  0.44386647    -0.57300
O217        O  0.44369406  0.81074829  0.39087130    -0.56200
C218        C  0.48506231  0.70667786  0.39718347     0.77600
O219        O  0.43783526  0.77317067  0.36250196    -0.58500
O220        O  0.50967798  0.78566408  0.39738711    -0.57000
O221        O  0.41847965  0.74178153  0.43450588    -0.57000
O222        O  0.48650216  0.71791614  0.42287589    -0.56100
O223        O  0.00774007  0.71522687  0.55079133    -0.57300
C224        C  0.91955128  0.73115442  0.53930870     0.75300
O225        O  0.94228887  0.71436394  0.63226252    -0.58500
C226        C  0.02325315  0.70209081  0.56985169     0.75300
C227        C  0.98978637  0.78060600  0.60469940     0.77600
Cd228      Cd  0.96551080  0.72521185  0.58394667     1.37500
O229        O  0.93855440  0.71088826  0.53772345    -0.57300
O230        O  0.99013864  0.77297749  0.57768964    -0.56200
C231        C  0.93979140  0.68697979  0.62760688     0.77600
O232        O  0.97569887  0.76376831  0.62174090    -0.58500
O233        O  0.92162023  0.74837257  0.56140084    -0.57000
O234        O  0.01088472  0.69761021  0.59442459    -0.57000
O235        O  0.94865174  0.67781748  0.60262603    -0.56100
O236        O  0.25728281  0.68673772  0.52631570    -0.57300
C237        C  0.34164970  0.70067312  0.51264945     0.75300
O238        O  0.33191786  0.61138980  0.52557934    -0.58500
C239        C  0.23962029  0.66612678  0.53245079     0.75300
C240        C  0.27726139  0.63206056  0.45799117     0.77600
Cd241      Cd  0.29903164  0.65330480  0.51428948     1.37500
O242        O  0.32582152  0.69599681  0.53516800    -0.57300
O243        O  0.27934337  0.65915047  0.46419219    -0.56200
C244        C  0.32628830  0.61153936  0.55307928     0.77600
O245        O  0.28879637  0.61476279  0.47646108    -0.58500
O246        O  0.33808282  0.68324886  0.49089463    -0.57000
O247        O  0.25036762  0.64057469  0.53330243    -0.57000
O248        O  0.30844607  0.63099230  0.56205883    -0.56100
O249        O  0.04181677  0.17009759  0.28466723    -0.57300
C250        C  0.05266622  0.25527814  0.31301987     0.75300
O251        O  0.99705950  0.20970238  0.37179066    -0.58500
C252        C  0.02038238  0.15251329  0.28724512     0.75300
C253        C  0.07488593  0.17316648  0.37072206     0.77600
Cd254      Cd  0.03240747  0.19818913  0.33084219     1.37500
O255        O  0.03735475  0.23897692  0.29616168    -0.57300
O256        O  0.08207791  0.18355508  0.34588145    -0.56200
C257        C  0.97885803  0.22277155  0.35516116     0.77600
O258        O  0.04756374  0.17368192  0.37671202    -0.58500
O259        O  0.06119339  0.24416012  0.33709148    -0.57000
O260        O  0.00478117  0.15549400  0.31028266    -0.57000
O261        O  0.98495948  0.22231855  0.32793733    -0.56100
O262        O  0.05173720  0.49000863  0.27153667    -0.57300
C263        C  0.04246244  0.57854430  0.26205633     0.75300
O264        O  0.13101238  0.56009483  0.28118210    -0.58500
C265        C  0.06962639  0.47392557  0.28552889     0.75300
C266        C  0.10908409  0.50714544  0.21424065     0.77600
Cd267      Cd  0.08580202  0.53229281  0.26824998     1.37500
O268        O  0.03977782  0.55903654  0.28165043    -0.57300
O269        O  0.08241385  0.51517548  0.21581554    -0.56200
C270        C  0.12778669  0.55852325  0.30901257     0.77600
O271        O  0.12544551  0.51438734  0.23580677    -0.58500
O272        O  0.06496606  0.57664792  0.24555383    -0.57000
O273        O  0.09277293  0.48618856  0.29517947    -0.57000
O274        O  0.10480709  0.54535021  0.31767145    -0.56100
O275        O  0.82093539  0.46759033  0.75000830    -0.57300
C276        C  0.80284285  0.48098309  0.83732849     0.75300
O277        O  0.89527078  0.47184360  0.82656919    -0.58500
C278        C  0.84238527  0.45804697  0.73474327     0.75300
C279        C  0.86917225  0.53691094  0.77350471     0.77600
Cd280      Cd  0.85100219  0.47975264  0.79475103     1.37500
O281        O  0.80453202  0.46108478  0.81764884    -0.57300
O282        O  0.84229527  0.52951488  0.77501358    -0.56200
C283        C  0.89451568  0.44405846  0.82514297     0.77600
O284        O  0.88729281  0.51898284  0.78458041    -0.58500
O285        O  0.82303785  0.50021431  0.83712020    -0.57000
O286        O  0.86674499  0.45633657  0.74819866    -0.57000
O287        O  0.87353053  0.43317460  0.81007790    -0.56100
O288        O  0.79624124  0.44548875  0.43445545    -0.57300
C289        C  0.80497039  0.41140397  0.51871235     0.75300
O290        O  0.73919298  0.36574092  0.46687163    -0.58500
C291        C  0.77497529  0.44567953  0.41633361     0.75300
C292        C  0.82037464  0.35663588  0.43494338     0.77600
Cd293      Cd  0.78123079  0.39998421  0.46032318     1.37500
O294        O  0.79811400  0.43216548  0.50152812    -0.57300
O295        O  0.82939938  0.38061490  0.44607341    -0.56200
C296        C  0.72471945  0.38266770  0.48388525     0.77600
O297        O  0.79267323  0.35308324  0.43451195    -0.58500
O298        O  0.80237218  0.38583005  0.50796115    -0.57000
O299        O  0.75690351  0.42457333  0.41809141    -0.57000
O300        O  0.73534361  0.40815412  0.48751543    -0.56100
O301        O  0.22599060  0.94039276  0.99904206    -0.57300
C302        C  0.24794336  0.95109832  0.08433351     0.75300
O303        O  0.23109102  0.85885456  0.06254229    -0.58500
C304        C  0.21935426  0.92023595  0.98074323     0.75300
C305        C  0.29736678  0.88740064  0.01672035     0.77600
Cd306      Cd  0.24081017  0.90638164  0.03905149     1.37500
O307        O  0.22595814  0.95072653  0.06708677    -0.57300
O308        O  0.28921462  0.91393326  0.01622759    -0.56200
C309        C  0.20383173  0.86303744  0.06668745     0.77600
O310        O  0.28019045  0.86994259  0.02994481    -0.58500
O311        O  0.26660152  0.93068184  0.08085661    -0.57000
O312        O  0.21955038  0.89430994  0.99043694    -0.57000
O313        O  0.19374352  0.88759001  0.05855851    -0.56100
O314        O  0.19946894  0.97364329  0.74989713    -0.57300
C315        C  0.21706324  0.98385970  0.66465729     0.75300
O316        O  0.12463046  0.96558740  0.67594626    -0.58500
C317        C  0.17908288  0.96338590  0.76592012     0.75300
C318        C  0.14614458  0.03848447  0.72350699     0.77600
Cd319      Cd  0.16811978  0.98138448  0.70573364     1.37500
O320        O  0.21470470  0.96399988  0.68386521    -0.57300
O321        O  0.17322770  0.03199030  0.72386263    -0.56200
C322        C  0.12876203  0.93831853  0.67967668     0.77600
O323        O  0.12920021  0.01926153  0.71217798    -0.58500
O324        O  0.19630889  0.00243873  0.66371989    -0.57000
O325        O  0.15423093  0.96061008  0.75357620    -0.57000
O326        O  0.15126346  0.93157700  0.69464601    -0.56100
O327        O  0.00370983  0.20997715  0.94517366    -0.57300
C328        C  0.09130513  0.22682170  0.96018487     0.75300
O329        O  0.06963173  0.21640178  0.86622409    -0.58500
C330        C  0.98564947  0.20932550  0.92373299     0.75300
C331        C  0.02764998  0.28596998  0.90224556     0.77600
Cd332      Cd  0.04604001  0.22623819  0.91447781     1.37500
O333        O  0.07102684  0.20770258  0.96025228    -0.57300
O334        O  0.02569778  0.27467833  0.92761623    -0.56200
C335        C  0.06887184  0.18868361  0.86764244     0.77600
O336        O  0.04095830  0.27051035  0.88294441    -0.58500
O337        O  0.09065341  0.24504815  0.93921952    -0.57000
O338        O  0.99632839  0.21365907  0.89836309    -0.57000
O339        O  0.05830468  0.17826304  0.89125963    -0.56100
O340        O  0.75309444  0.19304628  0.97483418    -0.57300
C341        C  0.66711758  0.20512948  0.98767277     0.75300
O342        O  0.68150736  0.11493273  0.97068802    -0.58500
C343        C  0.76959869  0.17401492  0.96271296     0.75300
C344        C  0.72935328  0.14010902  0.04030810     0.77600
Cd345      Cd  0.71074013  0.15934204  0.98250525     1.37500
O346        O  0.68650758  0.20553908  0.96753905    -0.57300
O347        O  0.72497320  0.16683082  0.03458608    -0.56200
C348        C  0.68438068  0.11624786  0.94286817     0.77600
O349        O  0.72324338  0.12209084  0.01966232    -0.58500
O350        O  0.66699332  0.18293168  0.00426624    -0.57000
O351        O  0.75826978  0.14894598  0.95877309    -0.57000
O352        O  0.69877997  0.13810488  0.93349250    -0.56100
O353        O  0.95515853  0.05650864  0.21334237    -0.57300
C354        C  0.92247296  0.97480270  0.20800706     0.75300
O355        O  0.87637692  0.02634983  0.27342664    -0.58500
C356        C  0.95895868  0.07373047  0.23512735     0.75300
C357        C  0.86438772  0.06001144  0.19471032     0.77600
Cd358      Cd  0.90978913  0.03303187  0.23074622     1.37500
O359        O  0.94145976  0.99515153  0.20756382    -0.57300
O360        O  0.88510536  0.04488604  0.18365484    -0.56200
C361        C  0.89426461  0.01086400  0.28816295     0.77600
O362        O  0.86492560  0.06312387  0.22254764    -0.58500
O363        O  0.89709729  0.98209188  0.21710710    -0.57000
O364        O  0.93945365  0.07302055  0.25514833    -0.57000
O365        O  0.91975450  0.00806722  0.27721430    -0.56100
O366        O  0.98188759  0.74401001  0.19242740    -0.57300
C367        C  0.99250755  0.66018954  0.20600587     0.75300
O368        O  0.98274903  0.66980898  0.11500311    -0.58500
C369        C  0.97208293  0.76096048  0.17272540     0.75300
C370        C  0.04914128  0.72367882  0.14016177     0.77600
Cd371      Cd  0.99230278  0.70228378  0.15854323     1.37500
O372        O  0.97178492  0.67847712  0.20271240    -0.57300
O373        O  0.04299015  0.71970672  0.16709598    -0.56200
C374        C  0.95520635  0.67450288  0.11447708     0.77600
O375        O  0.03005439  0.71470958  0.12167661    -0.58500
O376        O  0.01287368  0.66071572  0.18683879    -0.57000
O377        O  0.96999056  0.74991295  0.14701133    -0.57000
O378        O  0.94536227  0.69169320  0.13431950    -0.56100
O379        O  0.72253885  0.52804817  0.93826209    -0.57300
C380        C  0.71590638  0.55908003  0.02359167     0.75300
O381        O  0.77516877  0.61027831  0.97699800    -0.58500
C382        C  0.74383526  0.52781912  0.92015812     0.75300
C383        C  0.69953426  0.61733614  0.93738315     0.77600
Cd384      Cd  0.73705425  0.57366011  0.96473657     1.37500
O385        O  0.71770197  0.53967033  0.00343145    -0.57300
O386        O  0.68910460  0.59492433  0.94998806    -0.56200
C387        C  0.79472536  0.59215606  0.98498790     0.77600
O388        O  0.72734265  0.61925109  0.93687574    -0.58500
O389        O  0.72232353  0.58488691  0.01584351    -0.57000
O390        O  0.76170495  0.54912107  0.92213257    -0.57000
O391        O  0.78808830  0.56531281  0.98182497    -0.56100
O392        O  0.69872351  0.51503097  0.25916417    -0.57300
C393        C  0.71661228  0.50576895  0.34334229     0.75300
O394        O  0.62374838  0.52174793  0.33458001    -0.58500
C395        C  0.67910792  0.52429901  0.24171914     0.75300
C396        C  0.64333696  0.45283824  0.28674062     0.77600
Cd397      Cd  0.66679301  0.50951522  0.30311995     1.37500
O398        O  0.71362204  0.52711793  0.32585472    -0.57300
O399        O  0.67077942  0.45757452  0.28870084    -0.56200
C400        C  0.62609778  0.54931654  0.33204609     0.77600
O401        O  0.62679407  0.47361891  0.29522082    -0.58500
O402        O  0.69586576  0.48714066  0.34339241    -0.57000
O403        O  0.65410445  0.52878610  0.25331836    -0.57000
O404        O  0.64748061  0.55829084  0.31656269    -0.56100
O405        O  0.50693811  0.28039863  0.05868870    -0.57300
C406        C  0.59137528  0.26367635  0.04542260     0.75300
O407        O  0.56992539  0.27775445  0.14150227    -0.58500
C408        C  0.48827328  0.28575639  0.07883577     0.75300
C409        C  0.52996295  0.20790942  0.10863282     0.77600
Cd410      Cd  0.54758208  0.26650689  0.09247279     1.37500
O411        O  0.57458034  0.28560469  0.04885161    -0.57300
O412        O  0.52246234  0.21955148  0.08450468    -0.56200
C413        C  0.56857100  0.30541714  0.13927093     0.77600
O414        O  0.54731445  0.22283857  0.12487772    -0.58500
O415        O  0.58906121  0.24371667  0.06455169    -0.57000
O416        O  0.49771675  0.28349408  0.10506324    -0.57000
O417        O  0.55840687  0.31474252  0.11506755    -0.56100
O418        O  0.25159437  0.30118754  0.04276018    -0.57300
C419        C  0.17419454  0.27713056  0.01396198     0.75300
O420        O  0.17596786  0.36628372  0.02949052    -0.58500
C421        C  0.27196250  0.31954342  0.03778390     0.75300
C422        C  0.22753177  0.34678204  0.95648394     0.77600
Cd423      Cd  0.21274741  0.32826922  0.01570116     1.37500
O424        O  0.20199546  0.27485486  0.01445066    -0.57300
O425        O  0.22706755  0.32000165  0.96354217    -0.56200
C426        C  0.18564434  0.37036023  0.05550489     0.77600
O427        O  0.21820915  0.36462561  0.97589547    -0.58500
O428        O  0.16405609  0.30299684  0.01467502    -0.57000
O429        O  0.26438341  0.34240803  0.02407121    -0.57000
O430        O  0.20765504  0.35508827  0.06309982    -0.56100
O431        O  0.47200774  0.73032490  0.85100114    -0.57300
C432        C  0.49384033  0.82046816  0.78877177     0.75300
O433        O  0.48029683  0.80987040  0.88061660    -0.58500
C434        C  0.46420221  0.72177732  0.82548709     0.75300
C435        C  0.54761134  0.75707723  0.85709041     0.77600
Cd436      Cd  0.49082126  0.77868762  0.83706869     1.37500
O437        O  0.49102207  0.79306062  0.78481046    -0.57300
O438        O  0.54305963  0.76279064  0.83014570    -0.56200
C439        C  0.45259852  0.80635536  0.87978500     0.77600
O440        O  0.52717544  0.76449597  0.87459835    -0.58500
O441        O  0.49609121  0.82904962  0.81542892    -0.57000
O442        O  0.46718598  0.74043866  0.80515202    -0.57000
O443        O  0.44267967  0.79102920  0.85841799    -0.56100
O444        O  0.45616029  0.42888539  0.78322426    -0.57300
C445        C  0.42045228  0.50751712  0.78652315     0.75300
O446        O  0.37713690  0.45297330  0.72033535    -0.58500
C447        C  0.46000453  0.40964983  0.76325656     0.75300
C448        C  0.36512102  0.42416039  0.80295271     0.77600
Cd449      Cd  0.40955978  0.44876346  0.76449608     1.37500
O450        O  0.44077031  0.48863051  0.78406366    -0.57300
O451        O  0.38556866  0.44086504  0.81186209    -0.56200
C452        C  0.39468111  0.46923408  0.70611641     0.77600
O453        O  0.36528522  0.41806143  0.77551943    -0.58500
O454        O  0.39474944  0.49855970  0.78015055    -0.57000
O455        O  0.43954441  0.40697221  0.74430315    -0.57000
O456        O  0.41958859  0.47349065  0.71801479    -0.56100
C457        C  0.45838956  0.58051187  0.80525299    -0.22000
C458        C  0.43401974  0.59929649  0.80725230     0.10000
C459        C  0.40536276  0.58780249  0.80386380     0.10400
C460        C  0.40172172  0.55768252  0.79806530    -0.16900
C461        C  0.42610884  0.53866302  0.79531466    -0.27300
C462        C  0.45494656  0.55035896  0.79936200     0.18700
C463        C  0.43928170  0.63103186  0.81257225     0.12700
C464        C  0.37865299  0.60733624  0.80640857    -0.11700
H465        H  0.37959797  0.54910103  0.79519843     0.13000
C466        C  0.48236180  0.53169648  0.79711521    -0.22500
H467        H  0.48031592  0.58968471  0.80797738     0.08600
C468        C  0.44734585  0.64183097  0.84074312     0.04900
C469        C  0.45427845  0.67166395  0.84426546    -0.19800
C470        C  0.45351713  0.69116636  0.82024576    -0.12000
C471        C  0.44423684  0.68034269  0.79212685     0.13600
C472        C  0.43734031  0.65037702  0.78873601    -0.22500
C473        C  0.44866498  0.62183663  0.86709505    -0.05500
H474        H  0.46100255  0.67957639  0.86594774     0.15200
C475        C  0.44166010  0.69983417  0.76548304    -0.15700
H476        H  0.43092707  0.64178058  0.76720159     0.09500
H477        H  0.48166165  0.51406766  0.81389770     0.07300
H478        H  0.50272468  0.54471752  0.80118604     0.08600
H479        H  0.48415404  0.52195797  0.77455892     0.07600
H480        H  0.37931475  0.62436729  0.78902163     0.02500
H481        H  0.37833921  0.61819005  0.82852930     0.03000
H482        H  0.35781441  0.59474448  0.80369587     0.06500
H483        H  0.45477501  0.63395455  0.88766809     0.05400
H484        H  0.46537382  0.60440059  0.86331437    -0.00300
H485        H  0.42675089  0.61152077  0.87056405     0.01200
H486        H  0.43310727  0.68767441  0.74582821     0.04800
H487        H  0.46365586  0.70870674  0.75953740     0.06800
H488        H  0.42613836  0.71811951  0.77029853     0.07600
C489        C  0.32253246  0.40338365  0.87265097    -0.22000
C490        C  0.29760648  0.38985495  0.86042959     0.10000
C491        C  0.29442251  0.38793299  0.82947350     0.10400
C492        C  0.31674251  0.39931314  0.81126847    -0.16900
C493        C  0.34216227  0.41265936  0.82339527    -0.27300
C494        C  0.34490298  0.41476853  0.85471766     0.18700
C495        C  0.27609452  0.37673254  0.88103435     0.12700
C496        C  0.26757812  0.37377049  0.81580917    -0.11700
H497        H  0.31425416  0.39776761  0.78744328     0.13000
C498        C  0.37140876  0.42829636  0.86981700    -0.22500
H499        H  0.32464588  0.40457962  0.89655180     0.08600
C500        C  0.28069984  0.34843028  0.89243668     0.04900
C501        C  0.26272403  0.33845866  0.91546741    -0.19800
C502        C  0.24101901  0.35660946  0.92830699    -0.12000
C503        C  0.23568944  0.38464972  0.91596747     0.13600
C504        C  0.25316544  0.39418784  0.89222149    -0.22500
C505        C  0.30553565  0.32932599  0.88123963    -0.05500
H506        H  0.26706184  0.31704867  0.92478333     0.15200
C507        C  0.21208330  0.40487181  0.92781909    -0.15700
H508        H  0.24995537  0.41596672  0.88330308     0.09500
H509        H  0.39176824  0.41658294  0.86284704     0.07300
H510        H  0.36996699  0.42686344  0.89430753     0.08600
H511        H  0.37301021  0.45193780  0.86429904     0.07600
H512        H  0.24745619  0.38574150  0.82303045     0.02500
H513        H  0.26595970  0.35056066  0.82290598     0.03000
H514        H  0.26846374  0.37406616  0.79124471     0.06500
H515        H  0.30612198  0.30781512  0.89259130     0.05400
H516        H  0.32700813  0.34045516  0.88517886    -0.00300
H517        H  0.30279273  0.32512881  0.85715183     0.01200
H518        H  0.21774599  0.41234228  0.95057313     0.04800
H519        H  0.19050509  0.39331871  0.92789155     0.06800
H520        H  0.20972432  0.42481448  0.91406096     0.07600
C521        C  0.34564887  0.28371612  0.05713598    -0.22000
C522        C  0.36394240  0.30842489  0.05934396     0.10000
C523        C  0.35191217  0.33665165  0.05562797     0.10400
C524        C  0.32170930  0.33954342  0.04943616    -0.16900
C525        C  0.30316761  0.31482791  0.04681046    -0.27300
C526        C  0.31541253  0.28646078  0.05083807     0.18700
C527        C  0.39588249  0.30405079  0.06455726     0.12700
C528        C  0.37105796  0.36364518  0.05785354    -0.11700
H529        H  0.31260061  0.36129507  0.04633830     0.13000
C530        C  0.29726232  0.25888323  0.04741104    -0.22500
H531        H  0.35526588  0.26212534  0.05990257     0.08600
C532        C  0.40753553  0.30228460  0.09336339     0.04900
C533        C  0.43782206  0.29723630  0.09711818    -0.19800
C534        C  0.45684163  0.29332358  0.07272097    -0.12000
C535        C  0.44490075  0.29530883  0.04369265     0.13600
C536        C  0.41459531  0.30080685  0.04011266    -0.22500
C537        C  0.38789110  0.30525848  0.12011512    -0.05500
H538        H  0.44650502  0.29572477  0.11941090     0.15200
C539        C  0.46349148  0.29134625  0.01628569    -0.15700
H540        H  0.40524526  0.30216536  0.01806172     0.09500
H541        H  0.27966021  0.25846579  0.06445842     0.07300
H542        H  0.31083523  0.23879399  0.05019362     0.08600
H543        H  0.28728760  0.25792982  0.02495752     0.07600
H544        H  0.38869574  0.36256422  0.04084115     0.02500
H545        H  0.38133630  0.36501474  0.08013544     0.03000
H546        H  0.35817294  0.38405368  0.05433348     0.06500
H547        H  0.40053351  0.30329056  0.14107696     0.05400
H548        H  0.37084148  0.28774330  0.11963697    -0.00300
H549        H  0.37687410  0.32701466  0.12014304     0.01200
H550        H  0.47303499  0.26890308  0.01567407     0.04800
H551        H  0.48138136  0.30800300  0.01605049     0.06800
H552        H  0.45033860  0.29405361  0.99572991     0.07600
C553        C  0.59130339  0.39487295  0.25440173    -0.22000
C554        C  0.61054818  0.38032568  0.23497009     0.10000
C555        C  0.64091494  0.38685576  0.23573508     0.10400
C556        C  0.65118827  0.40905109  0.25482013    -0.16900
C557        C  0.63168859  0.42555520  0.27260801    -0.27300
C558        C  0.60141897  0.41750405  0.27325003     0.18700
C559        C  0.59817148  0.36095595  0.21156689     0.12700
C560        C  0.66228895  0.37129699  0.21541379    -0.11700
H561        H  0.67439466  0.41472263  0.25434208     0.13000
C562        C  0.57947127  0.43274420  0.29319247    -0.22500
H563        H  0.56803426  0.38940914  0.25376911     0.08600
C564        C  0.59476319  0.33053146  0.21542803     0.04900
C565        C  0.58498337  0.31309396  0.19151318    -0.19800
C566        C  0.57817566  0.32544266  0.16382568    -0.12000
C567        C  0.58065667  0.35637740  0.16055315     0.13600
C568        C  0.59078847  0.37356269  0.18444751    -0.22500
C569        C  0.60150059  0.31657806  0.24474588    -0.05500
H570        H  0.58268295  0.28963187  0.19454938     0.15200
C571        C  0.57312329  0.37173502  0.13211067    -0.15700
H572        H  0.59335540  0.39708225  0.18192409     0.09500
H573        H  0.55749687  0.42195440  0.29229583     0.07300
H574        H  0.57635665  0.45582570  0.28623769     0.08600
H575        H  0.58731998  0.43212160  0.31647168     0.07600
H576        H  0.65617488  0.37527461  0.19199188     0.02500
H577        H  0.66176405  0.34733658  0.21961726     0.03000
H578        H  0.68527794  0.37910508  0.21879884     0.06500
H579        H  0.59752572  0.29251065  0.24412756     0.05400
H580        H  0.58720504  0.32636440  0.26218334    -0.00300
H581        H  0.62495887  0.32037572  0.25071896     0.01200
H582        H  0.57686069  0.39581047  0.13376897     0.04800
H583        H  0.54946084  0.36832711  0.12670851     0.06800
H584        H  0.58718814  0.36320832  0.11385182     0.07600
C585        C  0.61852452  0.71137161  0.86044599    -0.22000
C586        C  0.61813798  0.70290880  0.89015354     0.10000
C587        C  0.59657333  0.71454828  0.90936537     0.10400
C588        C  0.57491762  0.73335493  0.89809579    -0.16900
C589        C  0.57406299  0.74083812  0.86790932    -0.27300
C590        C  0.59676996  0.73015563  0.84896291     0.18700
C591        C  0.63962051  0.68075511  0.90054277     0.12700
C592        C  0.59618179  0.70676089  0.94172337    -0.11700
H593        H  0.55796945  0.74147964  0.91295298     0.13000
C594        C  0.59817238  0.73777652  0.81660970    -0.22500
H595        H  0.63546195  0.70248604  0.84599942     0.08600
C596        C  0.63228118  0.65066458  0.90109198     0.04900
C597        C  0.65238641  0.63059256  0.91304871    -0.19800
C598        C  0.67998515  0.63975132  0.92394155    -0.12000
C599        C  0.68762739  0.66994656  0.92255983     0.13600
C600        C  0.66721538  0.69006175  0.91097535    -0.22500
C601        C  0.60322642  0.63975305  0.88899581    -0.05500
H602        H  0.64653482  0.60752566  0.91376565     0.15200
C603        C  0.71667379  0.68139134  0.93415654    -0.15700
H604        H  0.67258316  0.71325567  0.91041595     0.09500
H605        H  0.57856164  0.72885286  0.80485206     0.07300
H606        H  0.61801855  0.72830356  0.80572263     0.08600
H607        H  0.59918986  0.76198788  0.81411720     0.07600
H608        H  0.61725538  0.71365908  0.95224072     0.02500
H609        H  0.59343652  0.68270684  0.94428061     0.03000
H610        H  0.57783126  0.71781265  0.95370126     0.06500
H611        H  0.60108975  0.61554699  0.89091662     0.05400
H612        H  0.60139402  0.64544728  0.86522565    -0.00300
H613        H  0.58468455  0.65003955  0.90130121     0.01200
H614        H  0.73510845  0.67188397  0.92106839     0.04800
H615        H  0.71923552  0.67555431  0.95782528     0.06800
H616        H  0.71820858  0.70566888  0.93250151     0.07600
C617        C  0.68881103  0.52163655  0.09436924    -0.22000
C618        C  0.69684011  0.54272402  0.11575319     0.10000
C619        C  0.71044965  0.56898654  0.10676689     0.10400
C620        C  0.71565754  0.57366160  0.07660816    -0.16900
C621        C  0.70811030  0.55253035  0.05492842    -0.27300
C622        C  0.69441797  0.52605463  0.06404830     0.18700
C623        C  0.69161211  0.53680960  0.14760491     0.12700
C624        C  0.71950665  0.59216860  0.12904606    -0.11700
H625        H  0.72632622  0.59387522  0.07004365     0.13000
C626        C  0.68544083  0.50244540  0.04222376    -0.22500
H627        H  0.67844344  0.50146618  0.10154193     0.08600
C628        C  0.66367739  0.54074993  0.16071049     0.04900
C629        C  0.66044707  0.53681218  0.19137038    -0.19800
C630        C  0.68450190  0.52888006  0.20942283    -0.12000
C631        C  0.71250588  0.52450473  0.19588457     0.13600
C632        C  0.71556086  0.52856316  0.16523542    -0.22500
C633        C  0.63739479  0.54949076  0.14237110    -0.05500
H634        H  0.63887070  0.53991599  0.20122601     0.15200
C635        C  0.73947377  0.51568497  0.21321426    -0.15700
H636        H  0.73692904  0.52557632  0.15486137     0.09500
H637        H  0.67006693  0.51166223  0.02558202     0.07300
H638        H  0.67404912  0.48393089  0.05325345     0.08600
H639        H  0.70524799  0.49335201  0.03099775     0.07600
H640        H  0.73618214  0.58311142  0.14446149     0.02500
H641        H  0.69993212  0.59957146  0.14184784     0.03000
H642        H  0.72936258  0.61164505  0.11822964     0.06500
H643        H  0.61720683  0.55199651  0.15608243     0.05400
H644        H  0.63299404  0.53243352  0.12519494    -0.00300
H645        H  0.64183808  0.57076914  0.13144326     0.01200
H646        H  0.73588677  0.49390746  0.22343249     0.04800
H647        H  0.74429380  0.53243745  0.23058312     0.06800
H648        H  0.75932346  0.51383045  0.19891229     0.07600
C649        C  0.92312616  0.63873070  0.04433113    -0.22000
C650        C  0.89317126  0.63769590  0.05187948     0.10000
C651        C  0.88402787  0.64740256  0.08013559     0.10400
C652        C  0.90488084  0.65915305  0.09982056    -0.16900
C653        C  0.93495533  0.66074160  0.09241452    -0.27300
C654        C  0.94428062  0.64989423  0.06435654     0.18700
C655        C  0.87141980  0.62574539  0.03045019     0.12700
C656        C  0.85226913  0.64489320  0.08974612    -0.11700
H657        H  0.89758242  0.66686212  0.12137151     0.13000
C658        C  0.97618804  0.65037854  0.05505462    -0.22500
H659        H  0.92990896  0.63076824  0.02269959     0.08600
C660        C  0.85358770  0.64442301  0.01338337     0.04900
C661        C  0.82959365  0.63254806  0.99768482    -0.19800
C662        C  0.82307931  0.60231416  0.99839222    -0.12000
C663        C  0.84254328  0.58335315  0.01383557     0.13600
C664        C  0.86639609  0.59543752  0.02970740    -0.22500
C665        C  0.85964042  0.67693857  0.01214939    -0.05500
H666        H  0.81536791  0.64720518  0.98544000     0.15200
C667        C  0.83801951  0.55058003  0.01480702    -0.15700
H668        H  0.88050002  0.58131798  0.04273242     0.09500
H669        H  0.98469551  0.67324174  0.05582134     0.07300
H670        H  0.97915867  0.64182220  0.03213389     0.08600
H671        H  0.98943245  0.63633242  0.06997166     0.07600
H672        H  0.84529519  0.62152166  0.08887429     0.02500
H673        H  0.83785577  0.65785306  0.07494296     0.03000
H674        H  0.84898966  0.65312589  0.11273630     0.06500
H675        H  0.84368094  0.68838168  0.99759194     0.05400
H676        H  0.88216852  0.68066111  0.00331165    -0.00300
H677        H  0.85808626  0.68690501  0.03460275     0.01200
H678        H  0.83852697  0.54126742  0.99200311     0.04800
H679        H  0.81661422  0.54548854  0.02551933     0.06800
H680        H  0.85559109  0.53950840  0.02771645     0.07600
C681        C  0.96158179  0.90532979  0.18013771    -0.22000
C682        C  0.94233916  0.88366433  0.19045235     0.10000
C683        C  0.91620885  0.89189138  0.20514836     0.10400
C684        C  0.90999956  0.92176938  0.20956169    -0.16900
C685        C  0.92953514  0.94378529  0.20001117    -0.27300
C686        C  0.95564787  0.93533083  0.18477995     0.18700
C687        C  0.94995428  0.85236506  0.18575205     0.12700
C688        C  0.89499229  0.86906453  0.21633886    -0.11700
H689        H  0.89004460  0.92786546  0.22128868     0.13000
C690        C  0.97735397  0.95748891  0.17315101    -0.22500
H691        H  0.98151378  0.89863841  0.16867439     0.08600
C692        C  0.94292323  0.83765431  0.15912590     0.04900
C693        C  0.95003164  0.80784100  0.15587123    -0.19800
C694        C  0.96399277  0.79218305  0.17867724    -0.12000
C695        C  0.97094596  0.80718328  0.20555217     0.13600
C696        C  0.96381790  0.83709756  0.20862148    -0.22500
C697        C  0.92773422  0.85343141  0.13423775    -0.05500
H698        H  0.94461863  0.79674850  0.13522707     0.15200
C699        C  0.98613527  0.79228093  0.23102253    -0.15700
H700        H  0.96901589  0.84874423  0.22903019     0.09500
H701        H  0.99552239  0.94681271  0.16055401     0.07300
H702        H  0.98755800  0.96987147  0.19180830     0.08600
H703        H  0.96596561  0.97285006  0.15801327     0.07600
H704        H  0.90619740  0.85495321  0.23278854     0.02500
H705        H  0.88709432  0.85518690  0.19759510     0.03000
H706        H  0.87547135  0.87920783  0.22719580     0.06500
H707        H  0.92361860  0.83865396  0.11495787     0.05400
H708        H  0.94167837  0.87195505  0.12670809    -0.00300
H709        H  0.90616755  0.86211528  0.14198356     0.01200
H710        H  0.98997964  0.80762003  0.24991866     0.04800
H711        H  0.00795883  0.78378417  0.22381252     0.06800
H712        H  0.97224005  0.77400774  0.23921875     0.07600
C713        C  0.77310298  0.13789374  0.11253258    -0.22000
C714        C  0.77581628  0.10753266  0.11607410     0.10000
C715        C  0.75965705  0.08830155  0.09759494     0.10400
C716        C  0.74314000  0.09980865  0.07417925    -0.16900
C717        C  0.74234229  0.13017323  0.06877882    -0.27300
C718        C  0.75649478  0.14959997  0.08917117     0.18700
C719        C  0.79854419  0.09628178  0.13657349     0.12700
C720        C  0.76060343  0.05557354  0.10208787    -0.11700
H721        H  0.73176113  0.08480056  0.05929671     0.13000
C722        C  0.75550892  0.18252202  0.08602060    -0.22500
H723        H  0.78536233  0.15242679  0.12720536     0.08600
C724        C  0.82706270  0.08945831  0.12615584     0.04900
C725        C  0.84788240  0.07775026  0.14569905    -0.19800
C726        C  0.84120512  0.07328945  0.17570685    -0.12000
C727        C  0.81267988  0.08095744  0.18628241     0.13600
C728        C  0.79166734  0.09223381  0.16645042    -0.22500
C729        C  0.83559309  0.09479741  0.09439148    -0.05500
H730        H  0.86967147  0.07229358  0.13746360     0.15200
C731        C  0.80383065  0.07672514  0.21809957    -0.15700
H732        H  0.76970597  0.09775507  0.17417893     0.09500
H733        H  0.76609493  0.18905187  0.06493804     0.07300
H734        H  0.76747332  0.19392348  0.10428315     0.08600
H735        H  0.73226446  0.19018857  0.08659403     0.07600
H736        H  0.75247137  0.05037923  0.12461209     0.02500
H737        H  0.78354152  0.04739917  0.09969215     0.03000
H738        H  0.74658078  0.04365963  0.08574546     0.06500
H739        H  0.85885385  0.08850339  0.08996259     0.05400
H740        H  0.83307819  0.11846915  0.08930157    -0.00300
H741        H  0.82126935  0.08175063  0.07927788     0.01200
H742        H  0.81763223  0.09080409  0.23277165     0.04800
H743        H  0.80649571  0.05331800  0.22420116     0.06800
H744        H  0.78042845  0.08286699  0.22199808     0.07600
C745        C  0.84681949  0.16959488  0.92910448    -0.22000
C746        C  0.86105047  0.19232826  0.94449255     0.10000
C747        C  0.84504766  0.20993263  0.96464850     0.10400
C748        C  0.81503823  0.20396474  0.96941160    -0.16900
C749        C  0.80075805  0.18047986  0.95479380    -0.27300
C750        C  0.81695959  0.16319187  0.93411708     0.18700
C751        C  0.89300134  0.19666827  0.93959022     0.12700
C752        C  0.85976285  0.23474434  0.98133430    -0.11700
H753        H  0.80291077  0.21725023  0.98527538     0.13000
C754        C  0.80321907  0.13803321  0.91706916    -0.22500
H755        H  0.85941695  0.15637873  0.91354209     0.08600
C756        C  0.91418948  0.18175635  0.95667275     0.04900
C757        C  0.94429465  0.18621877  0.95101382    -0.19800
C758        C  0.95362945  0.20466264  0.92814071    -0.12000
C759        C  0.93219833  0.21945328  0.91084823     0.13600
C760        C  0.90213354  0.21527362  0.91691973    -0.22500
C761        C  0.90494803  0.16096262  0.98067764    -0.05500
H762        H  0.96062880  0.17497606  0.96428916     0.15200
C763        C  0.94068412  0.24042230  0.88663184    -0.15700
H764        H  0.88558911  0.22652532  0.90391850     0.09500
H765        H  0.81880575  0.12831038  0.90073797     0.07300
H766        H  0.78359237  0.14586062  0.90472731     0.08600
H767        H  0.79678274  0.12029548  0.93243949     0.07600
H768        H  0.86861827  0.25096428  0.96545150     0.02500
H769        H  0.87817388  0.22612768  0.99492984     0.03000
H770        H  0.84411382  0.24628169  0.99635654     0.06500
H771        H  0.92428452  0.15102161  0.99188036     0.05400
H772        H  0.89143799  0.14292733  0.97098200    -0.00300
H773        H  0.89171237  0.17285087  0.99761788     0.01200
H774        H  0.92106987  0.25116015  0.87672399     0.04800
H775        H  0.95224313  0.22840561  0.86857444     0.06800
H776        H  0.95521577  0.25798102  0.89572939     0.07600
C777        C  0.09156710  0.15876488  0.79147301    -0.22000
C778        C  0.10013415  0.13021211  0.79866953     0.10000
C779        C  0.09862283  0.12093807  0.82832838     0.10400
C780        C  0.08825585  0.14044894  0.85020293    -0.16900
C781        C  0.07977678  0.16928340  0.84326718    -0.27300
C782        C  0.08139176  0.17848782  0.81334265     0.18700
C783        C  0.11090286  0.11016440  0.77500931     0.12700
C784        C  0.10821315  0.09048185  0.83689223    -0.11700
H785        H  0.08712660  0.13319905  0.87294090     0.13000
C786        C  0.07176228  0.20867086  0.80395585    -0.22500
H787        H  0.09279829  0.16557110  0.76858738     0.08600
C788        C  0.09188740  0.09003476  0.76076196     0.04900
C789        C  0.10387702  0.06807342  0.74235514    -0.19800
C790        C  0.13452975  0.06581338  0.73776648    -0.12000
C791        C  0.15319479  0.08803399  0.74985338     0.13600
C792        C  0.14105276  0.10979235  0.76845310    -0.22500
C793        C  0.05903665  0.09135356  0.76562351    -0.05500
H794        H  0.08924503  0.05176879  0.73267806     0.15200
C795        C  0.18590862  0.08900104  0.74387396    -0.15700
H796        H  0.15532427  0.12591215  0.77898851     0.09500
H797        H  0.04846915  0.21245877  0.81056196     0.07300
H798        H  0.07320392  0.21137318  0.77958963     0.08600
H799        H  0.08619498  0.22559143  0.81429507     0.07600
H800        H  0.13178611  0.08723516  0.83105471     0.02500
H801        H  0.09467711  0.07383144  0.82497173     0.03000
H802        H  0.10571883  0.08677866  0.86102287     0.06500
H803        H  0.04725934  0.07406519  0.75272826     0.05400
H804        H  0.05056726  0.11306077  0.75855702    -0.00300
H805        H  0.05391609  0.08828352  0.78940945     0.01200
H806        H  0.18992009  0.08887849  0.71962394     0.04800
H807        H  0.19703151  0.06999792  0.75423186     0.06800
H808        H  0.19623740  0.10918331  0.75324655     0.07600
C809        C  0.16804842  0.79009760  0.08645834    -0.22000
C810        C  0.14376726  0.79982488  0.10295110     0.10000
C811        C  0.14017428  0.83005175  0.10897091     0.10400
C812        C  0.16051025  0.85009899  0.09736752    -0.16900
C813        C  0.18452589  0.84056817  0.08013944    -0.27300
C814        C  0.18858241  0.81006464  0.07497927     0.18700
C815        C  0.12106050  0.77825661  0.11168068     0.12700
C816        C  0.11453420  0.84112445  0.12710816    -0.11700
H817        H  0.15748172  0.87338998  0.10154494     0.13000
C818        C  0.21356961  0.79839614  0.05627618    -0.22500
H819        H  0.17043946  0.76679913  0.08189901     0.08600
C820        C  0.09802518  0.77053966  0.09216208     0.04900
C821        C  0.07592555  0.75132418  0.10167354    -0.19800
C822        C  0.07584759  0.74003676  0.13055880    -0.12000
C823        C  0.09962494  0.74722946  0.14986982     0.13600
C824        C  0.12202987  0.76612845  0.14000392    -0.22500
C825        C  0.09632010  0.78330874  0.06155114    -0.05500
H826        H  0.05790928  0.74614220  0.08673669     0.15200
C827        C  0.10169831  0.73543067  0.18086122    -0.15700
H828        H  0.14002353  0.77213921  0.15468792     0.09500
H829        H  0.21273905  0.80831797  0.03393750     0.07300
H830        H  0.21234588  0.77416534  0.05343350     0.08600
H831        H  0.23500914  0.80359533  0.06699368     0.07600
H832        H  0.11532317  0.83137922  0.14952332     0.02500
H833        H  0.09345334  0.83486747  0.11620978     0.03000
H834        H  0.11496484  0.86540673  0.12967517     0.06500
H835        H  0.07668239  0.77522127  0.04920230     0.05400
H836        H  0.11629138  0.77710823  0.04873888    -0.00300
H837        H  0.09489781  0.80761779  0.06309820     0.01200
H838        H  0.10083218  0.71106383  0.18022607     0.04800
H839        H  0.08339700  0.74421625  0.19462557     0.06800
H840        H  0.12266220  0.74198158  0.19185340     0.07600
C841        C  0.21920463  0.91687048  0.89670042    -0.22000
C842        C  0.19968374  0.93959773  0.88994417     0.10000
C843        C  0.18654722  0.95610215  0.91301453     0.10400
C844        C  0.19328049  0.94933719  0.94256610    -0.16900
C845        C  0.21284555  0.92646218  0.94939344    -0.27300
C846        C  0.22653947  0.91047162  0.92604714     0.18700
C847        C  0.19431070  0.94617651  0.85838505     0.12700
C848        C  0.16572567  0.98093608  0.90636891    -0.11700
H849        H  0.18317423  0.96184825  0.96040061     0.13000
C850        C  0.25026490  0.88773133  0.93082415    -0.22500
H851        H  0.22959210  0.90464628  0.87880626     0.08600
C852        C  0.21445799  0.96300882  0.84193574     0.04900
C853        C  0.20902063  0.96788221  0.81181520    -0.19800
C854        C  0.18397050  0.95612858  0.79758459    -0.12000
C855        C  0.16411796  0.93858144  0.81415215     0.13600
C856        C  0.16955936  0.93400774  0.84438046    -0.22500
C857        C  0.24165336  0.97588661  0.85624149    -0.05500
H858        H  0.22436040  0.98124160  0.79941409     0.15200
C859        C  0.13758409  0.92391089  0.80028199    -0.15700
H860        H  0.15457310  0.92062733  0.85720001     0.09500
H861        H  0.27019110  0.89376402  0.91793158     0.07300
H862        H  0.24230408  0.86595591  0.92293458     0.08600
H863        H  0.25744312  0.88582039  0.95412305     0.07600
H864        H  0.14639184  0.97245019  0.89382490     0.02500
H865        H  0.17720487  0.99771792  0.89292909     0.03000
H866        H  0.15756121  0.99174520  0.92693567     0.06500
H867        H  0.25493762  0.98877592  0.84031549     0.05400
H868        H  0.25579913  0.95801887  0.86488504    -0.00300
H869        H  0.23518544  0.99068989  0.87480355     0.01200
H870        H  0.12579701  0.90970196  0.81624634     0.04800
H871        H  0.14463581  0.90982950  0.78135923     0.06800
H872        H  0.12165285  0.94070412  0.79264430     0.07600
C873        C  0.36565157  0.88314689  0.96718843    -0.22000
C874        C  0.37019333  0.85280600  0.96603954     0.10000
C875        C  0.35302329  0.83423327  0.98384439     0.10400
C876        C  0.33047238  0.84639916  0.00135461    -0.16900
C877        C  0.32448216  0.87676925  0.00130997    -0.27300
C878        C  0.34302020  0.89548276  0.98447008     0.18700
C879        C  0.39133087  0.84091843  0.94406212     0.12700
C880        C  0.35802233  0.80152783  0.98369167    -0.11700
H881        H  0.31678143  0.83185527  0.01430336     0.13000
C882        C  0.33895075  0.92832627  0.98368796    -0.22500
H883        H  0.37922301  0.89713651  0.95348423     0.08600
C884        C  0.38241768  0.83513897  0.91467348     0.04900
C885        C  0.40301479  0.82417187  0.89428019    -0.19800
C886        C  0.43251206  0.81919364  0.90240104    -0.12000
C887        C  0.44147928  0.82534431  0.93195954     0.13600
C888        C  0.42064865  0.83606282  0.95242808    -0.22500
C889        C  0.35110981  0.84055580  0.90486064    -0.05500
H890        H  0.39601120  0.81960513  0.87174950     0.15200
C891        C  0.47258742  0.82002550  0.94243494    -0.15700
H892        H  0.42719543  0.84071102  0.97508711     0.09500
H893        H  0.31728142  0.93373980  0.97366833     0.07300
H894        H  0.35617644  0.93917837  0.97015420     0.08600
H895        H  0.34043824  0.93761796  0.00645993     0.07600
H896        H  0.38091983  0.79676195  0.99094765     0.02500
H897        H  0.35466097  0.79250005  0.96101650     0.03000
H898        H  0.34261552  0.79010996  0.99883664     0.06500
H899        H  0.34780819  0.83478499  0.88113835     0.05400
H900        H  0.34553410  0.86412488  0.90794521    -0.00300
H901        H  0.33572149  0.82706093  0.91814828     0.01200
H902        H  0.48810858  0.83448033  0.93039388     0.04800
H903        H  0.47863669  0.79665956  0.93866714     0.06800
H904        H  0.47513583  0.82488971  0.96645049     0.07600
C905        C  0.96513080  0.41434359  0.86127148    -0.22000
C906        C  0.95779547  0.38458471  0.86398794     0.10000
C907        C  0.92950209  0.37488955  0.85529969     0.10400
C908        C  0.90937717  0.39499095  0.84345065    -0.16900
C909        C  0.91664756  0.42479370  0.83993776    -0.27300
C910        C  0.94493319  0.43465611  0.84941509     0.18700
C911        C  0.97999536  0.36332944  0.87510678     0.12700
C912        C  0.92072233  0.34308381  0.85799504    -0.11700
H913        H  0.88781793  0.38718498  0.83660130     0.13000
C914        C  0.95445308  0.46619804  0.84645036    -0.22500
H915        H  0.98691146  0.42157451  0.86808383     0.08600
C916        C  0.00014409  0.34944174  0.85578323     0.04900
C917        C  0.01668182  0.32537843  0.86580289    -0.19800
C918        C  0.01358596  0.31471667  0.89481193    -0.12000
C919        C  0.99480686  0.33026102  0.91478237     0.13600
C920        C  0.97834547  0.35431506  0.90457515    -0.22500
C921        C  0.00335250  0.35940158  0.82425581    -0.05500
H922        H  0.03123110  0.31413898  0.85042130     0.15200
C923        C  0.99089838  0.32132136  0.94658689    -0.15700
H924        H  0.96293317  0.36531529  0.91928006     0.09500
H925        H  0.95341485  0.47278187  0.82287377     0.07300
H926        H  0.97745928  0.46964573  0.85424882     0.08600
H927        H  0.93993149  0.48061417  0.86000227     0.07600
H928        H  0.92173445  0.33639518  0.88153444     0.02500
H929        H  0.93594469  0.32909732  0.84475576     0.03000
H930        H  0.89791734  0.33909305  0.84988144     0.06500
H931        H  0.01992907  0.34612071  0.81195570     0.05400
H932        H  0.01057192  0.38270301  0.82399753    -0.00300
H933        H  0.98188909  0.35734091  0.81255069     0.01200
H934        H  0.01258083  0.32147072  0.95804900     0.04800
H935        H  0.98079664  0.29914237  0.94761224     0.06800
H936        H  0.97612865  0.33660932  0.95886657     0.07600
C937        C  0.85889364  0.44200655  0.65302034    -0.22000
C938        C  0.83046183  0.43736533  0.64189786     0.10000
C939        C  0.80603875  0.43924398  0.66112424     0.10400
C940        C  0.81064551  0.44550678  0.69129500    -0.16900
C941        C  0.83917358  0.45007233  0.70278557    -0.27300
C942        C  0.86365270  0.44859074  0.68311271     0.18700
C943        C  0.82660157  0.43082594  0.60991742     0.12700
C944        C  0.77509007  0.43501517  0.64963276    -0.11700
H945        H  0.79177164  0.44696326  0.70595019     0.13000
C946        C  0.89479799  0.45486567  0.69312253    -0.22500
H947        H  0.87743806  0.44078127  0.63790680     0.08600
C948        C  0.82471759  0.45340855  0.58892560     0.04900
C949        C  0.81864469  0.44625373  0.55924419    -0.19800
C950        C  0.81443124  0.41695677  0.54990969    -0.12000
C951        C  0.81757704  0.39418962  0.57105154     0.13600
C952        C  0.82363818  0.40155083  0.60072592    -0.22500
C953        C  0.82853379  0.48510050  0.59801223    -0.05500
H954        H  0.81661098  0.46382078  0.54336757     0.15200
C955        C  0.81394573  0.36213605  0.56309865    -0.15700
H956        H  0.82540437  0.38440291  0.61711221     0.09500
H957        H  0.89608995  0.47724171  0.70305913     0.07300
H958        H  0.91067846  0.45394613  0.67441996     0.08600
H959        H  0.90189639  0.43827899  0.70947906     0.07600
H960        H  0.77271904  0.41265715  0.63989370     0.02500
H961        H  0.77032004  0.45153826  0.63236641     0.03000
H962        H  0.75843056  0.43756476  0.66748611     0.06500
H963        H  0.82613064  0.50007889  0.57890869     0.05400
H964        H  0.85084793  0.48843205  0.60763343    -0.00300
H965        H  0.81165769  0.49118291  0.61477801     0.01200
H966        H  0.83043125  0.35568645  0.54607680     0.04800
H967        H  0.79126676  0.35799044  0.55473684     0.06800
H968        H  0.81737337  0.34775152  0.58251586     0.07600
C969        C  0.14676718  0.44570256  0.17113136    -0.22000
C970        C  0.13916340  0.45248189  0.14194544     0.10000
C971        C  0.12117114  0.47711838  0.13639187     0.10400
C972        C  0.11169777  0.49487273  0.16026752    -0.16900
C973        C  0.12013665  0.48862417  0.18947209    -0.27300
C974        C  0.13738086  0.46330508  0.19497663     0.18700
C975        C  0.15048325  0.43320997  0.11778825     0.12700
C976        C  0.11229685  0.48475296  0.10529150    -0.11700
H977        H  0.09789909  0.51382257  0.15611817    -0.06200
C978        C  0.14487254  0.45390105  0.22602173    -0.22500
H979        H  0.16009224  0.42639632  0.17522704     0.08600
C980        C  0.18018250  0.43470817  0.10856236     0.04900
C981        C  0.19085639  0.41403997  0.08793205    -0.19800
C982        C  0.17242846  0.39214867  0.07598706    -0.12000
C983        C  0.14240343  0.39116132  0.08460644     0.13600
C984        C  0.13185872  0.41172982  0.10545787    -0.22500
C985        C  0.20055667  0.45817215  0.12046627    -0.05500
H986        H  0.21376727  0.41491016  0.08110802     0.15200
C987        C  0.12117844  0.36804130  0.07347590    -0.15700
H988        H  0.10911448  0.41050912  0.11277272     0.09500
H989        H  0.15923850  0.47053640  0.23689361     0.07300
H990        H  0.15687272  0.43264406  0.22618542     0.08600
H991        H  0.12431917  0.45116753  0.23908421     0.07600
H992        H  0.09937853  0.46643784  0.09532766     0.02500
H993        H  0.13231273  0.48860847  0.09171670     0.03000
H994        H  0.09849270  0.50488251  0.10474107     0.06500
H995        H  0.22285836  0.45666440  0.11039670     0.05400
H996        H  0.20300492  0.45594557  0.14478283    -0.00300
H997        H  0.19135596  0.48017502  0.11549117     0.01200
H998        H  0.11222537  0.35568081  0.09253689     0.04800
H999        H  0.13139832  0.35188018  0.05817226     0.06800
H1000       H  0.10261268  0.37877181  0.06174044     0.07600
C1001       C  0.05820418  0.39281481  0.26865442    -0.22000
C1002       C  0.06180831  0.38060043  0.29675626     0.10000
C1003       C  0.06699659  0.39929919  0.32137499     0.10400
C1004       C  0.06877256  0.42979669  0.31715972    -0.16900
C1005       C  0.06493561  0.44205787  0.28903381    -0.27300
C1006       C  0.05973334  0.42321758  0.26435832     0.18700
C1007       C  0.05985606  0.34818726  0.29971614     0.12700
C1008       C  0.07014775  0.38719363  0.35213208    -0.11700
H1009       H  0.07319296  0.44418531  0.33591412     0.13000
C1010       C  0.05718834  0.43383322  0.23289987    -0.22500
H1011       H  0.05471846  0.37837896  0.24972565     0.08600
C1012       C  0.03295163  0.33316944  0.29514045     0.04900
C1013       C  0.03208263  0.30260577  0.29816507    -0.19800
C1014       C  0.05720359  0.28661968  0.30634401    -0.12000
C1015       C  0.08431313  0.30153691  0.31055434     0.13600
C1016       C  0.08530600  0.33215242  0.30690987    -0.22500
C1017       C  0.00481495  0.34938259  0.28825053    -0.05500
H1018       H  0.01123860  0.29120658  0.29534618     0.15200
C1019       C  0.11262308  0.28598815  0.31814561    -0.15700
H1020       H  0.10609445  0.34363371  0.30976564     0.09500
H1021       H  0.03494301  0.42836855  0.22410942     0.07300
H1022       H  0.07400399  0.42261912  0.21894696     0.08600
H1023       H  0.06079093  0.45766388  0.23043609     0.07600
H1024       H  0.08974045  0.37267861  0.35334662     0.02500
H1025       H  0.05009622  0.37447137  0.35792539     0.03000
H1026       H  0.07298128  0.40495886  0.36892677     0.06500
H1027       H  0.98556746  0.33430603  0.28693982     0.05400
H1028       H  0.00668958  0.36053807  0.26663373    -0.00300
H1029       H  0.00034419  0.36593655  0.30589539     0.01200
H1030       H  0.12953213  0.29089548  0.30111668     0.04800
H1031       H  0.11017839  0.26181165  0.31891006     0.06800
H1032       H  0.12073938  0.29391258  0.34001213     0.07600
C1033       C  0.91100634  0.27221928  0.36143324    -0.22000
C1034       C  0.90684213  0.27298057  0.39203284     0.10000
C1035       C  0.92471412  0.25564341  0.41043342     0.10400
C1036       C  0.94736503  0.23864996  0.39771364    -0.16900
C1037       C  0.95257688  0.23869647  0.36695674    -0.27300
C1038       C  0.93360772  0.25548549  0.34853400     0.18700
C1039       C  0.88494805  0.29391606  0.40412512     0.12700
C1040       C  0.92010006  0.25550642  0.44344689    -0.11700
H1041       H  0.96147449  0.22583835  0.41200809     0.13000
C1042       C  0.93707761  0.25680632  0.31535197    -0.22500
H1043       H  0.89696801  0.28567516  0.34763669     0.08600
C1044       C  0.89283833  0.32326681  0.41024718     0.04900
C1045       C  0.87120075  0.34301057  0.42003862    -0.19800
C1046       C  0.84160244  0.33432645  0.42349957    -0.12000
C1047       C  0.83370922  0.30475297  0.41693584     0.13600
C1048       C  0.85560736  0.28494251  0.40740139    -0.22500
C1049       C  0.92408878  0.33382762  0.40611654    -0.05500
H1050       H  0.87753708  0.36551342  0.42479328     0.15200
C1051       C  0.80255211  0.29363044  0.42003946    -0.15700
H1052       H  0.84983287  0.26237922  0.40217309     0.09500
H1053       H  0.95876716  0.26657742  0.30967624     0.07300
H1054       H  0.91985250  0.27064602  0.30493813     0.08600
H1055       H  0.93506832  0.23442742  0.30557418     0.07600
H1056       H  0.89740834  0.24782456  0.44845301     0.02500
H1057       H  0.92308050  0.27800564  0.45265889     0.03000
H1058       H  0.93595538  0.24072816  0.45467635     0.06500
H1059       H  0.92650765  0.35746448  0.41193503     0.05400
H1060       H  0.93077114  0.33082041  0.38264220    -0.00300
H1061       H  0.93923374  0.32114120  0.42045332     0.01200
H1062       H  0.78774543  0.30563767  0.40477454     0.04800
H1063       H  0.79496768  0.29662261  0.44323617     0.06800
H1064       H  0.80079651  0.26988345  0.41443112     0.07600
C1065       C  0.35089656  0.50114716  0.64154228    -0.22000
C1066       C  0.37088692  0.52231754  0.63157772     0.10000
C1067       C  0.39954291  0.52342084  0.64351617     0.10400
C1068       C  0.40708379  0.50440394  0.66647842    -0.16900
C1069       C  0.38652268  0.48443238  0.67820934    -0.27300
C1070       C  0.35828320  0.48207228  0.66469422     0.18700
C1071       C  0.36049138  0.54503028  0.61084949     0.12700
C1072       C  0.42195838  0.54514382  0.63242263    -0.11700
H1073       H  0.42891782  0.50615629  0.67613446     0.13000
C1074       C  0.33550687  0.46019164  0.67469429    -0.22500
H1075       H  0.32897473  0.50038547  0.63191172     0.08600
C1076       C  0.35893392  0.53999706  0.58008590     0.04900
C1077       C  0.34838325  0.56236642  0.56169774    -0.19800
C1078       C  0.33913307  0.58957919  0.57346405    -0.12000
C1079       C  0.34162309  0.59476209  0.60441516     0.13600
C1080       C  0.35217177  0.57233036  0.62261697    -0.22500
C1081       C  0.36843660  0.51107379  0.56678587    -0.05500
H1082       H  0.34675840  0.55830301  0.53805863     0.15200
C1083       C  0.33392133  0.62391143  0.61856956    -0.15700
H1084       H  0.35388301  0.57600563  0.64632364     0.09500
H1085       H  0.31539686  0.46073844  0.66062973     0.07300
H1086       H  0.32857789  0.46525162  0.69773802     0.08600
H1087       H  0.34474047  0.43764047  0.67330590     0.07600
H1088       H  0.41394724  0.56789680  0.63621876     0.02500
H1089       H  0.42561410  0.54153982  0.60835963     0.03000
H1090       H  0.44350284  0.54284083  0.64390015     0.06500
H1091       H  0.36608871  0.51081915  0.54230714     0.05400
H1092       H  0.35469256  0.49307940  0.57580526    -0.00300
H1093       H  0.39194420  0.50691793  0.57225484     0.01200
H1094       H  0.33936239  0.62443752  0.64255486     0.04800
H1095       H  0.30990565  0.62812563  0.61654816     0.06800
H1096       H  0.34657627  0.64176238  0.60782565     0.07600
C1097       C  0.23979356  0.58345027  0.39934330    -0.22000
C1098       C  0.21867912  0.60303266  0.38839886     0.10000
C1099       C  0.21881301  0.63246431  0.39824092     0.10400
C1100       C  0.23944647  0.64147728  0.41961326    -0.16900
C1101       C  0.25976912  0.62166375  0.43195645    -0.27300
C1102       C  0.26033065  0.59229378  0.42108648     0.18700
C1103       C  0.19561367  0.59199462  0.36778313     0.12700
C1104       C  0.19676636  0.65423917  0.38657249    -0.11700
H1105       H  0.23871607  0.66397174  0.42765753     0.13000
C1106       C  0.28225626  0.57007678  0.43213665    -0.22500
H1107       H  0.23962826  0.56090363  0.39137834     0.08600
C1108       C  0.20050546  0.58981501  0.33707107     0.04900
C1109       C  0.17781165  0.57936043  0.31854983    -0.19800
C1110       C  0.15024036  0.57077642  0.32999508    -0.12000
C1111       C  0.14533515  0.57353167  0.36099747     0.13600
C1112       C  0.16813600  0.58406975  0.37936489    -0.22500
C1113       C  0.22969103  0.59856354  0.32390978    -0.05500
H1114       H  0.18188435  0.57750929  0.29497386     0.15200
C1115       C  0.11625073  0.56585359  0.37514394    -0.15700
H1116       H  0.16458367  0.58615842  0.40302669     0.09500
H1117       H  0.28063471  0.54895827  0.41970674     0.07300
H1118       H  0.27805770  0.56527123  0.45578511     0.08600
H1119       H  0.30502867  0.57861615  0.42936791     0.07600
H1120       H  0.17403410  0.64693771  0.39191666     0.02500
H1121       H  0.19908859  0.65597565  0.36219116     0.03000
H1122       H  0.20003293  0.67645173  0.39642997     0.06500
H1123       H  0.22985602  0.59574228  0.29945989     0.05400
H1124       H  0.24754889  0.58477285  0.33323635    -0.00300
H1125       H  0.23430555  0.62199368  0.32915325     0.01200
H1126       H  0.11171274  0.54204241  0.37229049     0.04800
H1127       H  0.09826781  0.57892897  0.36503156     0.06800
H1128       H  0.11624813  0.57066887  0.39930346     0.07600
C1129       C  0.91626825  0.59703619  0.73831971    -0.22000
C1130       C  0.89576299  0.60957845  0.71898769     0.10000
C1131       C  0.86604502  0.60045335  0.72001462     0.10400
C1132       C  0.85781535  0.57795887  0.73938274    -0.16900
C1133       C  0.87864235  0.56391628  0.75757726    -0.27300
C1134       C  0.90819048  0.57438246  0.75764255     0.18700
C1135       C  0.90644366  0.63011230  0.69599234     0.12700
C1136       C  0.84305719  0.61419749  0.70039713    -0.11700
H1137       H  0.83512375  0.57046935  0.73927197     0.13000
C1138       C  0.93158790  0.56176410  0.77753700    -0.22500
H1139       H  0.93904661  0.60423658  0.73739989     0.08600
C1140       C  0.91550248  0.65903682  0.70277998     0.04900
C1141       C  0.92585216  0.67711469  0.67996472    -0.19800
C1142       C  0.92775776  0.66687251  0.65048352    -0.12000
C1143       C  0.91861181  0.63768749  0.64386381     0.13600
C1144       C  0.90816537  0.61982699  0.66672684    -0.22500
C1145       C  0.91402259  0.67088923  0.73399669    -0.05500
H1146       H  0.93287544  0.69929175  0.68533999     0.15200
C1147       C  0.91936147  0.62499885  0.61289487    -0.15700
H1148       H  0.90141373  0.59744815  0.66182000     0.09500
H1149       H  0.95271687  0.57401233  0.77588713     0.07300
H1150       H  0.93619198  0.53862612  0.77116328     0.08600
H1151       H  0.92420109  0.56301593  0.80094549     0.07600
H1152       H  0.84842229  0.61004643  0.67676837     0.02500
H1153       H  0.84230320  0.63825138  0.70460481     0.03000
H1154       H  0.82072959  0.60509285  0.70460258     0.06500
H1155       H  0.92132483  0.69415362  0.73535501     0.05400
H1156       H  0.92854326  0.65784385  0.74863597    -0.00300
H1157       H  0.89097901  0.66966756  0.74220752     0.01200
H1158       H  0.91011038  0.60241356  0.61192435     0.04800
H1159       H  0.94247832  0.62366682  0.60491966     0.06800
H1160       H  0.90602576  0.63883146  0.59783610     0.07600
C1161       C  0.10204955  0.67301076  0.57803538    -0.22000
C1162       C  0.11565722  0.68620069  0.55377320     0.10000
C1163       C  0.09868537  0.70281600  0.53390662     0.10400
C1164       C  0.06845418  0.70661544  0.53924808    -0.16900
C1165       C  0.05464967  0.69425058  0.56409536    -0.27300
C1166       C  0.07176140  0.67674151  0.58354671     0.18700
C1167       C  0.14757601  0.68142155  0.54891694     0.12700
C1168       C  0.11259725  0.71681969  0.50725351    -0.11700
H1169       H  0.05571841  0.71998331  0.52419539     0.13000
C1170       C  0.05858939  0.66166840  0.61000416    -0.22500
H1171       H  0.11532851  0.65984228  0.59282052     0.08600
C1172       C  0.16914859  0.69950802  0.56237853     0.04900
C1173       C  0.19913411  0.69428503  0.55640919    -0.19800
C1174       C  0.20786544  0.67128336  0.53743379    -0.12000
C1175       C  0.18601474  0.65364586  0.52340232     0.13600
C1176       C  0.15621421  0.65868725  0.52980046    -0.22500
C1177       C  0.16045744  0.72423516  0.58296102    -0.05500
H1178       H  0.21582941  0.70793870  0.56686617     0.15200
C1179       C  0.19287335  0.63028475  0.50045087    -0.15700
H1180       H  0.13944966  0.64521757  0.51917338     0.09500
H1181       H  0.05067589  0.67821959  0.62634329     0.07300
H1182       H  0.07500227  0.64767964  0.62147480     0.08600
H1183       H  0.04006398  0.64729964  0.60281525     0.07600
H1184       H  0.12231250  0.69960982  0.49267287     0.02500
H1185       H  0.13023230  0.73224155  0.51447124     0.03000
H1186       H  0.09623943  0.72930896  0.49408271     0.06500
H1187       H  0.18002991  0.73630724  0.59154352     0.05400
H1188       H  0.14815165  0.71534964  0.60213144    -0.00300
H1189       H  0.14620157  0.74004437  0.57106259     0.01200
H1190       H  0.18622759  0.60845183  0.50890872     0.04800
H1191       H  0.21636605  0.62939705  0.49394064     0.06800
H1192       H  0.18020030  0.63477804  0.47993036     0.07600
C1193       C  0.02356534  0.84084054  0.65406183    -0.22000
C1194       C  0.04496213  0.85220590  0.63498559     0.10000
C1195       C  0.04684866  0.84147874  0.60570594     0.10400
C1196       C  0.02758820  0.81914912  0.59625371    -0.16900
C1197       C  0.00669917  0.80672988  0.61553138    -0.27300
C1198       C  0.00444212  0.81816313  0.64484190     0.18700
C1199       C  0.06605083  0.87449531  0.64643022     0.12700
C1200       C  0.06948096  0.85338171  0.58454910    -0.11700
H1201       H  0.02964877  0.81068659  0.57384708     0.13000
C1202       C  0.98222037  0.80674168  0.66669903    -0.22500
H1203       H  0.02230616  0.84937329  0.67651894     0.08600
C1204       C  0.05879228  0.90454114  0.64788633     0.04900
C1205       C  0.07983587  0.92479682  0.65836678    -0.19800
C1206       C  0.10796482  0.91569341  0.66782056    -0.12000
C1207       C  0.11508161  0.88528823  0.66632398     0.13600
C1208       C  0.09400355  0.86521961  0.65557170    -0.22500
C1209       C  0.02885814  0.91516134  0.63827178    -0.05500
H1210       H  0.07405747  0.94786709  0.65952985     0.15200
C1211       C  0.14477339  0.87353592  0.67555665    -0.15700
H1212       H  0.09929591  0.84202164  0.65425613     0.09500
H1213       H  0.98273645  0.81936297  0.68786963     0.07300
H1214       H  0.98710890  0.78350379  0.67198480     0.08600
H1215       H  0.95963683  0.80860602  0.65736515     0.07600
H1216       H  0.09201548  0.84931835  0.59323277     0.02500
H1217       H  0.06620818  0.87737453  0.58191691     0.03000
H1218       H  0.06780323  0.84281813  0.56234055     0.06500
H1219       H  0.02678706  0.93937601  0.64060021     0.05400
H1220       H  0.01150660  0.90487117  0.65206010    -0.00300
H1221       H  0.02509047  0.90915189  0.61468753     0.01200
H1222       H  0.14659271  0.84949833  0.67152808     0.04800
H1223       H  0.14822715  0.87738438  0.69961214     0.06800
H1224       H  0.16250714  0.88436031  0.66269291     0.07600
C1225       C  0.51894356  0.64173229  0.35482048    -0.22000
C1226       C  0.53783274  0.63035515  0.37641561     0.10000
C1227       C  0.53673810  0.64178708  0.40549396     0.10400
C1228       C  0.51820315  0.66572311  0.41182316    -0.16900
C1229       C  0.50053032  0.67859343  0.38978713    -0.27300
C1230       C  0.50007566  0.66548684  0.36109947     0.18700
C1231       C  0.56038993  0.60843135  0.36731965     0.12700
C1232       C  0.55521143  0.62878055  0.42981725    -0.11700
H1233       H  0.51831469  0.67498011  0.43401956     0.13000
C1234       C  0.48027960  0.67637175  0.33673238    -0.22500
H1235       H  0.51975528  0.63258018  0.33258768     0.08600
C1236       C  0.55299059  0.57919103  0.35987131     0.04900
C1237       C  0.57505639  0.56018545  0.34915691    -0.19800
C1238       C  0.60435409  0.56979083  0.34562114    -0.12000
C1239       C  0.61190821  0.59878678  0.35445359     0.13600
C1240       C  0.58976210  0.61773907  0.36492942    -0.22500
C1241       C  0.52192092  0.56803071  0.36343986    -0.05500
H1242       H  0.56921757  0.53791108  0.34283758     0.15200
C1243       C  0.64326976  0.60981357  0.35365948    -0.15700
H1244       H  0.59528314  0.64018092  0.37095391     0.09500
H1245       H  0.48191955  0.66244129  0.31646899     0.07300
H1246       H  0.48663265  0.69901324  0.33049872     0.08600
H1247       H  0.45694045  0.67591084  0.34417269     0.07600
H1248       H  0.57900451  0.63116738  0.42464287     0.02500
H1249       H  0.54983957  0.60511332  0.43208016     0.03000
H1250       H  0.55106713  0.63977723  0.45147537     0.06500
H1251       H  0.52006951  0.54441636  0.35731722     0.05400
H1252       H  0.50668100  0.58052081  0.34904337    -0.00300
H1253       H  0.51494480  0.57068919  0.38687279     0.01200
H1254       H  0.64527487  0.63217597  0.36351485     0.04800
H1255       H  0.65113010  0.61102829  0.33046326     0.06800
H1256       H  0.65772945  0.59492251  0.36650150     0.07600
C1257       C  0.89359975  0.96103467  0.35577483    -0.22000
C1258       C  0.86344778  0.96059595  0.36228313     0.10000
C1259       C  0.84402298  0.97889423  0.34656975     0.10400
C1260       C  0.85510965  0.99633693  0.32367874    -0.16900
C1261       C  0.88512218  0.99547948  0.31564036    -0.27300
C1262       C  0.90475078  0.97786188  0.33245851     0.18700
C1263       C  0.85250240  0.93896001  0.38392992     0.12700
C1264       C  0.81142950  0.97907534  0.35311573    -0.11700
H1265       H  0.83989461  0.00973068  0.31117294     0.13000
C1266       C  0.93728757  0.97573245  0.32579754    -0.22500
H1267       H  0.90829301  0.94701829  0.36825113     0.08600
C1268       C  0.85068928  0.90884869  0.37646238     0.04900
C1269       C  0.84008497  0.88899862  0.39742367    -0.19800
C1270       C  0.83128108  0.89844117  0.42577034    -0.12000
C1271       C  0.83286927  0.92876853  0.43311631     0.13600
C1272       C  0.84362212  0.94860841  0.41207330    -0.22500
C1273       C  0.85943617  0.89769644  0.34617397    -0.05500
H1274       H  0.83874072  0.86588018  0.39161062     0.15200
C1275       C  0.82236129  0.94062580  0.46253975    -0.15700
H1276       H  0.84497758  0.97181917  0.41748089     0.09500
H1277       H  0.94906248  0.96183257  0.34205622     0.07300
H1278       H  0.94743576  0.99791784  0.32670730     0.08600
H1279       H  0.94070211  0.96556405  0.30362736     0.07600
H1280       H  0.80762364  0.98646051  0.37628525     0.02500
H1281       H  0.80226057  0.95663293  0.35001609     0.03000
H1282       H  0.79923761  0.99412775  0.33827848     0.06500
H1283       H  0.85576241  0.87367194  0.34376726     0.05400
H1284       H  0.88319662  0.90201877  0.34224083    -0.00300
H1285       H  0.84614769  0.90891155  0.32900113     0.01200
H1286       H  0.83621457  0.93182677  0.48065971     0.04800
H1287       H  0.79894728  0.93437234  0.46606177     0.06800
H1288       H  0.82378705  0.96496425  0.46369415     0.07600
C1289       C  0.65949926  0.79012752  0.44628843    -0.22000
C1290       C  0.64217284  0.81541732  0.44392238     0.10000
C1291       C  0.65515191  0.84325358  0.44780790     0.10400
C1292       C  0.68534126  0.84518507  0.45440663    -0.16900
C1293       C  0.70301086  0.81987189  0.45714221    -0.27300
C1294       C  0.68975137  0.79187135  0.45281138     0.18700
C1295       C  0.61023995  0.81194291  0.43816491     0.12700
C1296       C  0.63711573  0.87085609  0.44490922    -0.11700
H1297       H  0.69509611  0.86671059  0.45757136     0.13000
C1298       C  0.70685665  0.76362969  0.45537315    -0.22500
H1299       H  0.64911702  0.76885522  0.44324892     0.08600
C1300       C  0.59931147  0.80724939  0.40934020     0.04900
C1301       C  0.56915700  0.80160962  0.40528947    -0.19800
C1302       C  0.54966101  0.79981060  0.42949466    -0.12000
C1303       C  0.56075993  0.80539257  0.45845790     0.13600
C1304       C  0.59089330  0.81159361  0.46227299    -0.22500
C1305       C  0.61961526  0.80762190  0.38295251    -0.05500
H1306       H  0.56105758  0.79752681  0.38305605     0.15200
C1307       C  0.54150606  0.80430411  0.48562478    -0.15700
H1308       H  0.59969099  0.81529389  0.48432471     0.09500
H1309       H  0.69267309  0.74407006  0.45143675     0.07300
H1310       H  0.71626333  0.76177463  0.47797742     0.08600
H1311       H  0.72477110  0.76301007  0.43863983     0.07600
H1312       H  0.61911523  0.87098900  0.46155677     0.02500
H1313       H  0.62735622  0.87183955  0.42238767     0.03000
H1314       H  0.65070977  0.89088900  0.44845503     0.06500
H1315       H  0.60747096  0.80371239  0.36191038     0.05400
H1316       H  0.63655890  0.79018022  0.38513222    -0.00300
H1317       H  0.63072854  0.82929741  0.38160351     0.01200
H1318       H  0.55390682  0.81024980  0.50604716     0.04800
H1319       H  0.53288755  0.78171585  0.48857503     0.06800
H1320       H  0.52295912  0.82005684  0.48348723     0.07600
C1321       C  0.16795791  0.14741335  0.47993621    -0.22000
C1322       C  0.15833034  0.12899677  0.45686193     0.10000
C1323       C  0.17046713  0.10070851  0.45367044     0.10400
C1324       C  0.19271413  0.09173094  0.47314642    -0.16900
C1325       C  0.20345596  0.11042627  0.49578200    -0.27300
C1326       C  0.19038287  0.13858983  0.49948304     0.18700
C1327       C  0.13670366  0.14029417  0.43519806     0.12700
C1328       C  0.16005382  0.08007204  0.42952751    -0.11700
H1329       H  0.20225269  0.07010779  0.47007058     0.13000
C1330       C  0.19994901  0.15973937  0.52350909    -0.22500
H1331       H  0.15830952  0.16910039  0.48217292     0.08600
C1332       C  0.10620874  0.14048514  0.44102575     0.04900
C1333       C  0.08671159  0.15095068  0.41941553    -0.19800
C1334       C  0.09696499  0.16146634  0.39205133    -0.12000
C1335       C  0.12782887  0.16115946  0.38636443     0.13600
C1336       C  0.14715992  0.15055654  0.40807039    -0.22500
C1337       C  0.09428903  0.12949283  0.46998333    -0.05500
H1338       H  0.06327694  0.15104643  0.42412043     0.15200
C1339       C  0.14092878  0.17191759  0.35776775    -0.15700
H1340       H  0.17072155  0.15021302  0.40391978     0.09500
H1341       H  0.18663854  0.18021561  0.52343221     0.07300
H1342       H  0.22334884  0.16609228  0.52019296     0.08600
H1343       H  0.19716521  0.14944081  0.54550248     0.07600
H1344       H  0.16432683  0.08980981  0.40751849     0.02500
H1345       H  0.13602019  0.07603956  0.43197565     0.03000
H1346       H  0.17156776  0.05857337  0.43036106     0.06500
H1347       H  0.06983927  0.13086602  0.47088401     0.05400
H1348       H  0.10335862  0.14288896  0.48853865    -0.00300
H1349       H  0.10073677  0.10619300  0.47297700     0.01200
H1350       H  0.16533508  0.16970717  0.35743701     0.04800
H1351       H  0.13573896  0.19553465  0.35484589     0.06800
H1352       H  0.13211715  0.15883115  0.33886359     0.07600
C1353       C  0.46986087  0.08159714  0.15555377    -0.22000
C1354       C  0.46140412  0.11059815  0.15006653     0.10000
C1355       C  0.43179599  0.11911208  0.15437290     0.10400
C1356       C  0.41128333  0.09845956  0.16446710    -0.16900
C1357       C  0.41947691  0.06926612  0.17004411    -0.27300
C1358       C  0.44930112  0.06074294  0.16553186     0.18700
C1359       C  0.48364566  0.13207291  0.13984302     0.12700
C1360       C  0.42181774  0.15002593  0.14814744    -0.11700
H1361       H  0.38857946  0.10516985  0.16780729     0.13000
C1362       C  0.45995978  0.03012901  0.17201552    -0.22500
H1363       H  0.49270641  0.07536687  0.15220818     0.08600
C1364       C  0.49803250  0.15117885  0.15991492     0.04900
C1365       C  0.51481045  0.17459243  0.14897986    -0.19800
C1366       C  0.51726009  0.17952157  0.11839558    -0.12000
C1367       C  0.50485811  0.15872064  0.09832355     0.13600
C1368       C  0.48817986  0.13525029  0.10939701    -0.22500
C1369       C  0.49488043  0.14734794  0.19284851    -0.05500
H1370       H  0.52465646  0.19005632  0.16449544     0.15200
C1371       C  0.50889804  0.16098688  0.06529465    -0.15700
H1372       H  0.47746920  0.12003864  0.09420156     0.09500
H1373       H  0.45520265  0.02465418  0.19543131     0.07300
H1374       H  0.48412248  0.02792433  0.16855054     0.08600
H1375       H  0.44891080  0.01407568  0.15704824     0.07600
H1376       H  0.42594349  0.15523961  0.12455561     0.02500
H1377       H  0.43410472  0.16584002  0.16237652     0.03000
H1378       H  0.39789454  0.15298465  0.15255242     0.06500
H1379       H  0.50764433  0.16413772  0.20546070     0.05400
H1380       H  0.50313203  0.12532632  0.19914712    -0.00300
H1381       H  0.47136161  0.14931830  0.19936828     0.01200
H1382       H  0.53276055  0.16254716  0.05997395     0.04800
H1383       H  0.49709850  0.18047181  0.05674953     0.06800
H1384       H  0.49989307  0.14144710  0.05344639     0.07600
C1385       C  0.33818191  0.07144022  0.40510907    -0.22000
C1386       C  0.32352662  0.04782978  0.39150837     0.10000
C1387       C  0.30582201  0.02906575  0.40854585     0.10400
C1388       C  0.30254867  0.03475057  0.43888053    -0.16900
C1389       C  0.31624637  0.05904844  0.45263196    -0.27300
C1390       C  0.33470930  0.07747497  0.43547352     0.18700
C1391       C  0.32758100  0.04265018  0.35943265     0.12700
C1392       C  0.29000666  0.00330851  0.39457931    -0.11700
H1393       H  0.28832630  0.02057977  0.45168882     0.13000
C1394       C  0.35095638  0.10337972  0.44869522    -0.22500
H1395       H  0.35209622  0.08541538  0.39173789     0.08600
C1396       C  0.30933089  0.05611795  0.33822230     0.04900
C1397       C  0.31404973  0.05018320  0.30800772    -0.19800
C1398       C  0.33685165  0.03137824  0.29865997    -0.12000
C1399       C  0.35460345  0.01731951  0.32019233     0.13600
C1400       C  0.34977982  0.02332108  0.35028764    -0.22500
C1401       C  0.28498552  0.07671471  0.34755278    -0.05500
H1402       H  0.30019446  0.06061816  0.29161443     0.15200
C1403       C  0.37790962  0.99507895  0.31185075    -0.15700
H1404       H  0.36327460  0.01273938  0.36689540     0.09500
H1405       H  0.33503875  0.12032251  0.45634418     0.07300
H1406       H  0.36570233  0.11393046  0.43229524     0.08600
H1407       H  0.36482263  0.09607881  0.46751097     0.07600
H1408       H  0.30628883  0.98798685  0.38453607     0.02500
H1409       H  0.27475470  0.01112534  0.37711305     0.03000
H1410       H  0.27686073  0.99095750  0.41104745     0.06500
H1411       H  0.27267988  0.08527732  0.32820077     0.05400
H1412       H  0.29445127  0.09568513  0.35993953    -0.00300
H1413       H  0.26911705  0.06506772  0.36200434     0.01200
H1414       H  0.39594699  0.00580292  0.29938390     0.04800
H1415       H  0.36795667  0.97723865  0.29816995     0.06800
H1416       H  0.38797648  0.98485694  0.33166685     0.07600
C1417       C  0.40160183  0.86589395  0.32569580    -0.22000
C1418       C  0.40203527  0.85553409  0.29644151     0.10000
C1419       C  0.41166286  0.82674758  0.29025080     0.10400
C1420       C  0.42143846  0.80907260  0.31360768    -0.16900
C1421       C  0.42207802  0.81968857  0.34301336    -0.27300
C1422       C  0.41143846  0.84845304  0.34911765     0.18700
C1423       C  0.39359156  0.87616607  0.27282798     0.12700
C1424       C  0.41176658  0.81486896  0.25902543    -0.11700
H1425       H  0.42930432  0.78708791  0.30870502     0.13000
C1426       C  0.41001035  0.86110251  0.38007582    -0.22500
H1427       H  0.39394495  0.88807047  0.33010328     0.08600
C1428       C  0.36381179  0.88203138  0.26636641     0.04900
C1429       C  0.35679372  0.90561810  0.24792743    -0.19800
C1430       C  0.37887430  0.92390502  0.23617910    -0.12000
C1431       C  0.40894389  0.91665099  0.24128069     0.13600
C1432       C  0.41579529  0.89276729  0.25947551    -0.22500
C1433       C  0.33946494  0.86393853  0.27969811    -0.05500
H1434       H  0.33377257  0.91058504  0.24386965     0.15200
C1435       C  0.43407180  0.93449498  0.22901546    -0.15700
H1436       H  0.43863658  0.88790828  0.26463233     0.09500
H1437       H  0.39939148  0.88308370  0.38055796     0.07300
H1438       H  0.43259255  0.86383775  0.38919979     0.08600
H1439       H  0.39685028  0.84643600  0.39445801     0.07600
H1440       H  0.42639523  0.82848416  0.24502501     0.02500
H1441       H  0.38903834  0.81536545  0.24985931     0.03000
H1442       H  0.41981001  0.79184661  0.25800142     0.06500
H1443       H  0.31735131  0.87132351  0.27222866     0.05400
H1444       H  0.34021884  0.86576674  0.30420939    -0.00300
H1445       H  0.34219891  0.84056182  0.27305032     0.01200
H1446       H  0.45587660  0.92508696  0.23493538     0.04800
H1447       H  0.43333369  0.95719603  0.23817702     0.06800
H1448       H  0.43267142  0.93492906  0.20448673     0.07600
C1449       C  0.66454959  0.33612694  0.51998010    -0.22000
C1450       C  0.65237792  0.35669135  0.53972176     0.10000
C1451       C  0.66179613  0.38613293  0.53888184     0.10400
C1452       C  0.68425451  0.39409659  0.51920456    -0.16900
C1453       C  0.69785398  0.37328891  0.50037021    -0.27300
C1454       C  0.68711095  0.34395123  0.50021738     0.18700
C1455       C  0.63118219  0.34646470  0.56234854     0.12700
C1456       C  0.64831893  0.40909294  0.55895786    -0.11700
H1457       H  0.69184973  0.41666686  0.51932534     0.13000
C1458       C  0.69948582  0.32047218  0.48001933    -0.22500
H1459       H  0.65691913  0.31357237  0.52072720     0.08600
C1460       C  0.60157108  0.34012094  0.55532512     0.04900
C1461       C  0.58278470  0.32943488  0.57744182    -0.19800
C1462       C  0.59293539  0.32474160  0.60649180    -0.12000
C1463       C  0.62269792  0.33175798  0.61353854     0.13600
C1464       C  0.64134078  0.34246748  0.59130657    -0.22500
C1465       C  0.58980252  0.34481085  0.52454440    -0.05500
H1466       H  0.56010978  0.32431097  0.57179920     0.15200
C1467       C  0.63516559  0.32844719  0.64429328    -0.15700
H1468       H  0.66416407  0.34754690  0.59641545     0.09500
H1469       H  0.68769375  0.29924285  0.48249107     0.07300
H1470       H  0.72305629  0.31654055  0.48533150     0.08600
H1471       H  0.69716641  0.32727219  0.45659980     0.07600
H1472       H  0.65232473  0.40342614  0.58245312     0.02500
H1473       H  0.62418115  0.41026488  0.55492337     0.03000
H1474       H  0.65784308  0.43119988  0.55507078     0.06500
H1475       H  0.56599505  0.33923697  0.52288983     0.05400
H1476       H  0.60196407  0.33073668  0.50849870    -0.00300
H1477       H  0.59258196  0.36819704  0.51839739     0.01200
H1478       H  0.65830373  0.33638951  0.64577810     0.04800
H1479       H  0.63521088  0.30495846  0.65059837     0.06800
H1480       H  0.62187022  0.34148098  0.66033877     0.07600
C1481       C  0.35517489  0.19572520  0.59730403    -0.22000
C1482       C  0.38458317  0.18738329  0.60136615     0.10000
C1483       C  0.39344366  0.15852436  0.59422528     0.10400
C1484       C  0.37255147  0.13852745  0.58314011    -0.16900
C1485       C  0.34285604  0.14660225  0.57896332    -0.27300
C1486       C  0.33413619  0.17582118  0.58608005     0.18700
C1487       C  0.40578219  0.20904391  0.61364067     0.12700
C1488       C  0.42495756  0.14881922  0.59840523    -0.11700
H1489       H  0.37958315  0.11637029  0.57776258     0.13000
C1490       C  0.30302046  0.18659503  0.58162755    -0.22500
H1491       H  0.34873135  0.21802304  0.60289100     0.08600
C1492       C  0.42301732  0.22686246  0.59513612     0.04900
C1493       C  0.44461476  0.24521836  0.60776478    -0.19800
C1494       C  0.44952603  0.24615475  0.63856837    -0.12000
C1495       C  0.43096209  0.22915968  0.65717073     0.13600
C1496       C  0.40935968  0.21089912  0.64434624    -0.22500
C1497       C  0.41886774  0.22613615  0.56203822    -0.05500
H1498       H  0.45835492  0.25819784  0.59328325     0.15200
C1499       C  0.43376228  0.22949485  0.69044228    -0.15700
H1500       H  0.39564340  0.19729178  0.65829454     0.09500
H1501       H  0.30064634  0.21015715  0.58777392     0.07300
H1502       H  0.28760613  0.17398221  0.59573287     0.08600
H1503       H  0.29668843  0.18418294  0.55797548     0.07600
H1504       H  0.43127994  0.15121303  0.62205483     0.02500
H1505       H  0.43987948  0.16247202  0.58477069     0.03000
H1506       H  0.42816866  0.12549152  0.59174610     0.06500
H1507       H  0.43413094  0.24146707  0.55074777     0.05400
H1508       H  0.39590913  0.23258339  0.55651671    -0.00300
H1509       H  0.42307312  0.20366855  0.55328720     0.01200
H1510       H  0.41648882  0.21589462  0.70109492     0.04800
H1511       H  0.43131660  0.25229793  0.69902473     0.06800
H1512       H  0.45544886  0.22037657  0.69710195     0.07600
C1513       C  0.70707387  0.89787684  0.66548999    -0.22000
C1514       C  0.69958669  0.89132801  0.63613332     0.10000
C1515       C  0.67031905  0.89517984  0.62636719     0.10400
C1516       C  0.64916121  0.90614489  0.64619532    -0.16900
C1517       C  0.65644686  0.91302195  0.67574679    -0.27300
C1518       C  0.68591542  0.90864515  0.68553529     0.18700
C1519       C  0.72276018  0.88082843  0.61564795     0.12700
C1520       C  0.66144175  0.88762825  0.59502120    -0.11700
H1521       H  0.62672130  0.90921911  0.63852674     0.13000
C1522       C  0.69564906  0.91586759  0.71668604    -0.22500
H1523       H  0.72969075  0.89475861  0.67262247     0.08600
C1524       C  0.73828457  0.90047862  0.59752936     0.04900
C1525       C  0.75735694  0.88931550  0.57579083    -0.19800
C1526       C  0.76087350  0.85887508  0.57133973    -0.12000
C1527       C  0.74671386  0.83926419  0.59107702     0.13600
C1528       C  0.72791116  0.85063019  0.61306644    -0.22500
C1529       C  0.73399861  0.93318943  0.60056596    -0.05500
H1530       H  0.76828617  0.90455762  0.56115042     0.15200
C1531       C  0.75065491  0.80642398  0.58905176    -0.15700
H1532       H  0.71614171  0.83584062  0.62754992     0.09500
H1533       H  0.71965209  0.91208336  0.71983884     0.07300
H1534       H  0.68381966  0.90168999  0.73261051     0.08600
H1535       H  0.69117667  0.93935240  0.72177373     0.07600
H1536       H  0.66574693  0.86400626  0.59049915     0.02500
H1537       H  0.67430143  0.90102998  0.57921344     0.03000
H1538       H  0.63763844  0.89184991  0.59105536     0.06500
H1539       H  0.74785148  0.94547145  0.58463352     0.05400
H1540       H  0.74012048  0.94043230  0.62329434    -0.00300
H1541       H  0.71058307  0.93893721  0.59638260     0.01200
H1542       H  0.73966988  0.79504151  0.60768159     0.04800
H1543       H  0.77449546  0.80088740  0.58985468     0.06800
H1544       H  0.74068293  0.79776830  0.56829104     0.07600
C1545       C  0.57141557  0.14623069  0.66647670    -0.22000
C1546       C  0.56376617  0.13405934  0.69369870     0.10000
C1547       C  0.55381677  0.15245440  0.71687476     0.10400
C1548       C  0.55132468  0.18276432  0.71213294    -0.16900
C1549       C  0.55835390  0.19523065  0.68462969    -0.27300
C1550       C  0.56877399  0.17650652  0.66146767     0.18700
C1551       C  0.56745891  0.10204852  0.69774010     0.12700
C1552       C  0.54536269  0.13998588  0.74644415    -0.11700
H1553       H  0.54316884  0.19667519  0.72992484     0.13000
C1554       C  0.57723145  0.18782276  0.63137567    -0.22500
H1555       H  0.57936407  0.13180960  0.64897948     0.08600
C1556       C  0.54622307  0.08162601  0.68762405     0.04900
C1557       C  0.55103116  0.05148276  0.69193597    -0.19800
C1558       C  0.57668126  0.04131419  0.70601536    -0.12000
C1559       C  0.59784299  0.06209656  0.71639164     0.13600
C1560       C  0.59293471  0.09211985  0.71189833    -0.22500
C1561       C  0.51834912  0.09171938  0.67269939    -0.05500
H1562       H  0.53462802  0.03579625  0.68433559     0.15200
C1563       C  0.62516540  0.05322670  0.73320936    -0.15700
H1564       H  0.60897719  0.10810443  0.71969259     0.09500
H1565       H  0.55758509  0.19701269  0.62009765     0.07300
H1566       H  0.58610942  0.17011887  0.61681731     0.08600
H1567       H  0.59461014  0.20488580  0.63370961     0.07600
H1568       H  0.56470527  0.12904176  0.75659974     0.02500
H1569       H  0.52733173  0.12370223  0.74345586     0.03000
H1570       H  0.53756128  0.15733063  0.76202652     0.06500
H1571       H  0.50387706  0.07295115  0.66647007     0.05400
H1572       H  0.52389161  0.10384935  0.65225274    -0.00300
H1573       H  0.50583874  0.10641533  0.68790427     0.01200
H1574       H  0.63982335  0.03989216  0.71873258     0.04800
H1575       H  0.61892819  0.04048881  0.75308002     0.06800
H1576       H  0.63808770  0.07259122  0.74091316     0.07600
C1577       C  0.64531570  0.04828371  0.91055301    -0.22000
C1578       C  0.64943773  0.05260586  0.88022650     0.10000
C1579       C  0.66533991  0.07731219  0.87054055     0.10400
C1580       C  0.67627564  0.09754215  0.89148805    -0.16900
C1581       C  0.67196681  0.09365904  0.92209101    -0.27300
C1582       C  0.65649109  0.06828441  0.93168432     0.18700
C1583       C  0.63621352  0.03141607  0.85887226     0.12700
C1584       C  0.67102007  0.08214671  0.83808057    -0.11700
H1585       H  0.68833017  0.11653442  0.88376414     0.13000
C1586       C  0.65158891  0.06175642  0.96395179    -0.22500
H1587       H  0.63314101  0.02911262  0.91767658     0.08600
C1588       C  0.64995068  0.00449247  0.85181315     0.04900
C1589       C  0.63748451  0.98616364  0.82993879    -0.19800
C1590       C  0.61136659  0.99394918  0.81509026    -0.12000
C1591       C  0.59695189  0.02056665  0.82328024     0.13600
C1592       C  0.60967787  0.03887094  0.84501696    -0.22500
C1593       C  0.67811376  0.99546153  0.86689488    -0.05500
H1594       H  0.64861054  0.96589431  0.82397208     0.15200
C1595       C  0.56877619  0.03062207  0.80875390    -0.15700
H1596       H  0.59920100  0.05952218  0.85089098     0.09500
H1597       H  0.63937060  0.04085787  0.96705069     0.07300
H1598       H  0.63837647  0.07955382  0.97440894     0.08600
H1599       H  0.67314581  0.05959759  0.97541556     0.07600
H1600       H  0.64977647  0.08446743  0.82609442     0.02500
H1601       H  0.68335072  0.06315387  0.82870814     0.03000
H1602       H  0.68424599  0.10230354  0.83429025     0.06500
H1603       H  0.68618264  0.97389100  0.85855105     0.05400
H1604       H  0.67434056  0.99362217  0.89108202    -0.00300
H1605       H  0.69552898  0.01210402  0.86288135     0.01200
H1606       H  0.56107306  0.05201519  0.81790564     0.04800
H1607       H  0.55101104  0.01430997  0.81258364     0.06800
H1608       H  0.57228123  0.03348490  0.78463677     0.07600
C1609       C  0.09675482  0.19066280  0.11256552    -0.22000
C1610       C  0.06655566  0.18526047  0.10906752     0.10000
C1611       C  0.05251775  0.19248861  0.08222439     0.10400
C1612       C  0.06908959  0.20537546  0.05947269    -0.16900
C1613       C  0.09928924  0.21128552  0.06308266    -0.27300
C1614       C  0.11343377  0.20330394  0.08985136     0.18700
C1615       C  0.05052144  0.17113777  0.13368816     0.12700
C1616       C  0.02017456  0.18640318  0.07759217    -0.11700
H1617       H  0.05849494  0.21074161  0.03869230     0.13000
C1618       C  0.14627898  0.20659606  0.09422402    -0.22500
H1619       H  0.10739551  0.18445105  0.13308106     0.08600
C1620       C  0.04897269  0.14029043  0.13584457     0.04900
C1621       C  0.03514349  0.12780018  0.16041479    -0.19800
C1622       C  0.02392560  0.14540430  0.18341869    -0.12000
C1623       C  0.02564046  0.17628257  0.18146212     0.13600
C1624       C  0.03867645  0.18881659  0.15636472    -0.22500
C1625       C  0.06301474  0.12057895  0.11289670    -0.05500
H1626       H  0.03427937  0.10410023  0.16240388     0.15200
C1627       C  0.01420260  0.19647903  0.20545155    -0.15700
H1628       H  0.04028024  0.21250679  0.15479871     0.09500
H1629       H  0.15365835  0.19702823  0.11550639     0.07300
H1630       H  0.15250949  0.23011683  0.09462728     0.08600
H1631       H  0.15831315  0.19511662  0.07614579     0.07600
H1632       H  0.00706535  0.19852895  0.09447612     0.02500
H1633       H  0.01578298  0.16253505  0.07965961     0.03000
H1634       H  0.01266016  0.19336669  0.05533043     0.06500
H1635       H  0.05990328  0.09698959  0.11810145     0.05400
H1636       H  0.08707283  0.12500824  0.11205097    -0.00300
H1637       H  0.05318707  0.12469475  0.09082716     0.01200
H1638       H  0.03264208  0.20995199  0.21442792     0.04800
H1639       H  0.00399209  0.18450587  0.22407371     0.06800
H1640       H  0.99724279  0.21131021  0.19606059     0.07600
C1641       C  0.21835404  0.10124206  0.07935381    -0.22000
C1642       C  0.20740471  0.09380800  0.05127019     0.10000
C1643       C  0.21264143  0.06551924  0.03944363     0.10400
C1644       C  0.22848446  0.04509361  0.05630705    -0.16900
C1645       C  0.23881825  0.05224378  0.08483066    -0.27300
C1646       C  0.23352964  0.08074756  0.09655879     0.18700
C1647       C  0.19008726  0.11625406  0.03532558     0.12700
C1648       C  0.20053547  0.05657732  0.00964407    -0.11700
H1649       H  0.23186712  0.02305110  0.04767728     0.13000
C1650       C  0.24191400  0.08929747  0.12780844    -0.22500
H1651       H  0.21412517  0.12305957  0.08821006     0.08600
C1652       C  0.16159515  0.12440934  0.04488049     0.04900
C1653       C  0.14830792  0.14950481  0.03302712    -0.19800
C1654       C  0.16294461  0.16680075  0.01198571    -0.12000
C1655       C  0.19003121  0.15652238  0.00007423     0.13600
C1656       C  0.20353335  0.13172900  0.01235622    -0.22500
C1657       C  0.14558007  0.10714538  0.06821819    -0.05500
H1658       H  0.12734513  0.15667268  0.04194673     0.15200
C1659       C  0.20526429  0.17102556  0.97444881    -0.15700
H1660       H  0.22510607  0.12493643  0.00454148     0.09500
H1661       H  0.23371546  0.11154910  0.13383461     0.07300
H1662       H  0.26623049  0.08974484  0.13023970     0.08600
H1663       H  0.23219474  0.07354669  0.14367775     0.07600
H1664       H  0.20993556  0.07079799  0.99221867     0.02500
H1665       H  0.17613970  0.05881732  0.00968727     0.03000
H1666       H  0.20604447  0.03341785  0.00401662     0.06500
H1667       H  0.12315494  0.11604015  0.07239047     0.05400
H1668       H  0.15795862  0.10793656  0.08941212    -0.00300
H1669       H  0.14327193  0.08392505  0.06082554     0.01200
H1670       H  0.22673832  0.18026684  0.98188104     0.04800
H1671       H  0.19184004  0.18871047  0.96449953     0.06800
H1672       H  0.20937221  0.15445596  0.95672262     0.07600
C1673       C  0.14326322  0.03192708  0.15737736    -0.22000
C1674       C  0.14349566  0.03433584  0.18823065     0.10000
C1675       C  0.16710556  0.02177888  0.20395954     0.10400
C1676       C  0.19047467  0.00876870  0.18823278    -0.16900
C1677       C  0.19296432  0.01044166  0.15702863    -0.27300
C1678       C  0.16760565  0.02099983  0.14138379     0.18700
C1679       C  0.11894103  0.05055614  0.20310110     0.12700
C1680       C  0.16882098  0.02338195  0.23730331    -0.11700
H1681       H  0.20739914  0.99806349  0.20101123     0.13000
C1682       C  0.16473212  0.02163088  0.10821596    -0.22500
H1683       H  0.12403358  0.03985375  0.14561618     0.08600
C1684       C  0.11299894  0.08040977  0.19687331     0.04900
C1685       C  0.08789651  0.09385312  0.20916409    -0.19800
C1686       C  0.06920685  0.07878778  0.22867603    -0.12000
C1687       C  0.07745581  0.05021290  0.23769741     0.13600
C1688       C  0.10096943  0.03590837  0.22345643    -0.22500
C1689       C  0.13305060  0.09835091  0.17742577    -0.05500
H1690       H  0.08241296  0.11590863  0.20243178     0.15200
C1691       C  0.06286404  0.03456207  0.26302479    -0.15700
H1692       H  0.10532991  0.01313359  0.22850565     0.09500
H1693       H  0.14328134  0.03089371  0.10092655     0.07300
H1694       H  0.16542802  0.99891737  0.09913312     0.08600
H1695       H  0.18183643  0.03605305  0.09872110     0.07600
H1696       H  0.15119860  0.00993823  0.24738028     0.02500
H1697       H  0.16667254  0.04655365  0.24488281     0.03000
H1698       H  0.19019765  0.01492009  0.24569334     0.06500
H1699       H  0.12615671  0.12174544  0.17679873     0.05400
H1700       H  0.13268814  0.08994111  0.15433003    -0.00300
H1701       H  0.15595502  0.09755858  0.18612569     0.01200
H1702       H  0.05118144  0.01471830  0.25464348     0.04800
H1703       H  0.04718883  0.04875644  0.27538590     0.06800
H1704       H  0.07996968  0.02768694  0.27915520     0.07600
C1705       C  0.72193610  0.32109243  0.96345907    -0.22000
C1706       C  0.71016895  0.34859339  0.95635441     0.10000
C1707       C  0.68078133  0.35528465  0.96429769     0.10400
C1708       C  0.66352369  0.33403490  0.97842213    -0.16900
C1709       C  0.67480392  0.30606411  0.98446430    -0.27300
C1710       C  0.70463841  0.29975508  0.97758815     0.18700
C1711       C  0.72815644  0.36996191  0.93950745     0.12700
C1712       C  0.66736761  0.38461628  0.95706782    -0.11700
H1713       H  0.64058481  0.33872673  0.98333391     0.13000
C1714       C  0.71895523  0.27095172  0.98513737    -0.22500
H1715       H  0.74461063  0.31613966  0.95765266     0.08600
C1716       C  0.74622587  0.39081614  0.95376601     0.04900
C1717       C  0.75764839  0.41430855  0.93741431    -0.19800
C1718       C  0.75046592  0.41834463  0.90720198    -0.12000
C1719       C  0.73644549  0.39434214  0.89218110     0.13600
C1720       C  0.72490859  0.37097427  0.90877941    -0.22500
C1721       C  0.75235450  0.38893977  0.98646523    -0.05500
H1722       H  0.77096765  0.43052907  0.94893022     0.15200
C1723       C  0.73349276  0.39200869  0.85908351    -0.15700
H1724       H  0.71219699  0.35381865  0.89787015     0.09500
H1725       H  0.73897734  0.27511476  0.99873573     0.07300
H1726       H  0.72548204  0.25923861  0.96448741     0.08600
H1727       H  0.70431098  0.25654161  0.99815629     0.07600
H1728       H  0.66740021  0.38777197  0.93274705     0.02500
H1729       H  0.68032926  0.40246812  0.96781732     0.03000
H1730       H  0.64420730  0.38631025  0.96490742     0.06500
H1731       H  0.76679528  0.40713877  0.99430952     0.05400
H1732       H  0.76354506  0.36784313  0.99131370    -0.00300
H1733       H  0.73132772  0.39008716  0.99901136     0.01200
H1734       H  0.75571430  0.39230727  0.84881222     0.04800
H1735       H  0.71948834  0.40970367  0.85046412     0.06800
H1736       H  0.72290905  0.37106374  0.85203405     0.07600
C1737       C  0.60011545  0.45222099  0.79219057    -0.22000
C1738       C  0.62599197  0.43670106  0.78622538     0.10000
C1739       C  0.62455728  0.41084680  0.76887812     0.10400
C1740       C  0.59710074  0.40129806  0.75773768    -0.16900
C1741       C  0.57047467  0.41548479  0.76545528    -0.27300
C1742       C  0.57237499  0.44191620  0.78290134     0.18700
C1743       C  0.65284845  0.44548752  0.80300249     0.12700
C1744       C  0.65155886  0.39216390  0.76387972    -0.11700
H1745       H  0.59645310  0.38164166  0.74409272     0.13000
C1746       C  0.54604108  0.45918891  0.79388021    -0.22500
H1747       H  0.60160177  0.47184689  0.80593349     0.08600
C1748       C  0.67567731  0.46267834  0.79076856     0.04900
C1749       C  0.69946793  0.47159154  0.80891034    -0.19800
C1750       C  0.69992260  0.46511479  0.83924301    -0.12000
C1751       C  0.67623366  0.44909006  0.85163053     0.13600
C1752       C  0.65349992  0.43895517  0.83321516    -0.22500
C1753       C  0.67419680  0.47284985  0.75918641    -0.05500
H1754       H  0.71728457  0.48445433  0.79965262     0.15200
C1755       C  0.67405344  0.44197706  0.88409167    -0.15700
H1756       H  0.63551844  0.42646572  0.84272989     0.09500
H1757       H  0.53575859  0.47122041  0.77534270     0.07300
H1758       H  0.55236621  0.47624306  0.81047216     0.08600
H1759       H  0.52998280  0.44466960  0.80500785     0.07600
H1760       H  0.66065178  0.38514095  0.78551661     0.02500
H1761       H  0.66865358  0.40467254  0.75187062     0.03000
H1762       H  0.64640282  0.37211657  0.75064665     0.06500
H1763       H  0.69346380  0.48675155  0.75344136     0.05400
H1764       H  0.65387591  0.48603188  0.75590003    -0.00300
H1765       H  0.67382677  0.45381338  0.74374746     0.01200
H1766       H  0.65336636  0.45140379  0.89326110     0.04800
H1767       H  0.69256027  0.45071354  0.89743543     0.06800
H1768       H  0.67351686  0.41778559  0.88680755     0.07600
C1769       C  0.55332655  0.34184354  0.86546944    -0.22000
C1770       C  0.56391667  0.31340894  0.86002712     0.10000
C1771       C  0.55976450  0.30040597  0.83183828     0.10400
C1772       C  0.54523853  0.31633485  0.80968124    -0.16900
C1773       C  0.53472360  0.34493347  0.81501765    -0.27300
C1774       C  0.53928911  0.35802961  0.84328475     0.18700
C1775       C  0.57861922  0.29766359  0.88457944     0.12700
C1776       C  0.57114021  0.27001871  0.82496130    -0.11700
H1777       H  0.54221674  0.30647887  0.78793466     0.13000
C1778       C  0.53112398  0.38930771  0.85080565    -0.22500
H1779       H  0.55654118  0.35173262  0.88718509     0.08600
C1780       C  0.60671469  0.30610776  0.89524551     0.04900
C1781       C  0.61820769  0.29244922  0.92046023    -0.19800
C1782       C  0.60222715  0.27075119  0.93547753    -0.12000
C1783       C  0.57493573  0.26102990  0.92357239     0.13600
C1784       C  0.56331377  0.27495801  0.89858253    -0.22500
C1785       C  0.62442980  0.32978531  0.88037042    -0.05500
H1786       H  0.63917009  0.29987453  0.92927812     0.15200
C1787       C  0.55763648  0.23586923  0.93629968    -0.15700
H1788       H  0.54188132  0.26831147  0.89017786     0.09500
H1789       H  0.55109119  0.40135656  0.85843139     0.07300
H1790       H  0.51454573  0.38952346  0.86888649     0.08600
H1791       H  0.52207022  0.40155894  0.83195223     0.07600
H1792       H  0.56020623  0.25375004  0.83941328     0.02500
H1793       H  0.59534260  0.26926965  0.82870324     0.03000
H1794       H  0.56675653  0.26352129  0.80159851     0.06500
H1795       H  0.64620237  0.33313501  0.89123837     0.05400
H1796       H  0.61238853  0.35096982  0.88136238    -0.00300
H1797       H  0.62835944  0.32359466  0.85686983     0.01200
H1798       H  0.53621271  0.24405028  0.94496728     0.04800
H1799       H  0.56954988  0.22446595  0.95425269     0.06800
H1800       H  0.55330018  0.21927792  0.91863449     0.07600
C1801       C  0.78093196  0.58807157  0.45500898    -0.22000
C1802       C  0.81138712  0.59340782  0.45444448     0.10000
C1803       C  0.83022551  0.57261182  0.44116081     0.10400
C1804       C  0.81799466  0.54822008  0.42648743    -0.16900
C1805       C  0.78719221  0.54460747  0.42352503    -0.27300
C1806       C  0.76865315  0.56341940  0.44056125     0.18700
C1807       C  0.82279533  0.62245402  0.46420662     0.12700
C1808       C  0.86319715  0.57707362  0.44095300    -0.11700
H1809       H  0.83300644  0.53318239  0.41572462     0.13000
C1810       C  0.73627661  0.55763012  0.44528490    -0.22500
H1811       H  0.76658817  0.60355839  0.46634064     0.08600
C1812       C  0.82092370  0.64667953  0.44510489     0.04900
C1813       C  0.83258368  0.67375293  0.45419877    -0.19800
C1814       C  0.84709683  0.67706719  0.48147122    -0.12000
C1815       C  0.84966017  0.65270139  0.50037736     0.13600
C1816       C  0.83716643  0.62560548  0.49163689    -0.22500
C1817       C  0.80726896  0.64376348  0.41475119    -0.05500
H1818       H  0.83058342  0.69245332  0.43977099     0.15200
C1819       C  0.86493467  0.65545911  0.52988949    -0.15700
H1820       H  0.83888500  0.60676664  0.50600190     0.09500
H1821       H  0.72298550  0.57472668  0.43409203     0.07300
H1822       H  0.73135201  0.55840359  0.46936292     0.08600
H1823       H  0.72941860  0.53554587  0.43740890     0.07600
H1824       H  0.87161901  0.57790860  0.46402663     0.02500
H1825       H  0.86867326  0.59798358  0.42976645     0.03000
H1826       H  0.87477926  0.55900859  0.42904352     0.06500
H1827       H  0.80824899  0.66471439  0.40241280     0.05400
H1828       H  0.78375644  0.63726987  0.41671598    -0.00300
H1829       H  0.81928231  0.62682130  0.40164365     0.01200
H1830       H  0.86411972  0.63456688  0.54233609     0.04800
H1831       H  0.85408352  0.67278775  0.54348449     0.06800
H1832       H  0.88845749  0.66132215  0.52665714     0.07600
C1833       C  0.88965246  0.57569790  0.28177265    -0.22000
C1834       C  0.89662373  0.54916706  0.29559957     0.10000
C1835       C  0.92597418  0.53888420  0.29478734     0.10400
C1836       C  0.94772524  0.55577040  0.28070303    -0.16900
C1837       C  0.94112077  0.58322039  0.26831619    -0.27300
C1838       C  0.91154872  0.59341131  0.26916161     0.18700
C1839       C  0.87323235  0.53442437  0.31317240     0.12700
C1840       C  0.93467794  0.51092918  0.31003447    -0.11700
H1841       H  0.97033061  0.54801806  0.28041913     0.13000
C1842       C  0.90300716  0.62382380  0.25936982    -0.22500
H1843       H  0.86702905  0.58340760  0.28243870     0.08600
C1844       C  0.86095770  0.54839829  0.33835455     0.04900
C1845       C  0.83668302  0.53573566  0.35238159    -0.19800
C1846       C  0.82554609  0.50832457  0.34362383    -0.12000
C1847       C  0.83853488  0.49361890  0.31915529     0.13600
C1848       C  0.86197171  0.50706196  0.30394069    -0.22500
C1849       C  0.87367544  0.57644962  0.35093988    -0.05500
H1850       H  0.82536239  0.54823745  0.36923284     0.15200
C1851       C  0.82789618  0.46407639  0.30831738    -0.15700
H1852       H  0.87118534  0.49633486  0.28452309     0.09500
H1853       H  0.87984579  0.62915432  0.26537363     0.07300
H1854       H  0.90462583  0.62557016  0.23500658     0.08600
H1855       H  0.91739267  0.64045412  0.27030745     0.07600
H1856       H  0.92297931  0.49197728  0.29981195     0.02500
H1857       H  0.92891912  0.51243455  0.33389133     0.03000
H1858       H  0.95875510  0.50673438  0.30827629     0.06500
H1859       H  0.86232432  0.58337819  0.37164477     0.05400
H1860       H  0.87157278  0.59464938  0.33498483    -0.00300
H1861       H  0.89726718  0.57277443  0.35623865     0.01200
H1862       H  0.81961641  0.46597176  0.28527685     0.04800
H1863       H  0.80997948  0.45500255  0.32219920     0.06800
H1864       H  0.84649612  0.44822334  0.30862369     0.07600
C1865       C  0.98659355  0.69259618  0.35203156    -0.22000
C1866       C  0.96336200  0.67949246  0.36747211     0.10000
C1867       C  0.95308923  0.65155819  0.35853149     0.10400
C1868       C  0.96471451  0.63828687  0.33293361    -0.16900
C1869       C  0.98671580  0.65215199  0.31619238    -0.27300
C1870       C  0.99891168  0.67896635  0.32688406     0.18700
C1871       C  0.94828380  0.69616503  0.39139512     0.12700
C1872       C  0.92938158  0.63605363  0.37571945    -0.11700
H1873       H  0.95532078  0.61772966  0.32517146     0.13000
C1874       C  0.02507763  0.69361950  0.31270730    -0.22500
H1875       H  0.99490454  0.71377001  0.35941914     0.08600
C1876       C  0.95936216  0.69760879  0.42051297     0.04900
C1877       C  0.94259449  0.71163222  0.44267959    -0.19800
C1878       C  0.91478762  0.72389282  0.43649108    -0.12000
C1879       C  0.90409867  0.72288773  0.40689402     0.13600
C1880       C  0.92117099  0.70923152  0.38484090    -0.22500
C1881       C  0.98826840  0.68337868  0.42833414    -0.05500
H1882       H  0.95085514  0.71223156  0.46520507     0.15200
C1883       C  0.87422341  0.73455467  0.39818162    -0.15700
H1884       H  0.91292032  0.70788025  0.36232317     0.09500
H1885       H  0.04243414  0.69748952  0.32967353     0.07300
H1886       H  0.01828337  0.71507189  0.30343396     0.08600
H1887       H  0.03521498  0.68004856  0.29495088     0.07600
H1888       H  0.90859049  0.64889669  0.37524112     0.02500
H1889       H  0.93656985  0.63332784  0.39903440     0.03000
H1890       H  0.92484471  0.61396653  0.36632698     0.06500
H1891       H  0.99356018  0.68614194  0.45221560     0.05400
H1892       H  0.00635442  0.69341366  0.41532710    -0.00300
H1893       H  0.98721080  0.65949605  0.42321811     0.01200
H1894       H  0.87423099  0.75885978  0.39912734     0.04800
H1895       H  0.85690093  0.72573575  0.41287729     0.06800
H1896       H  0.86828776  0.72817477  0.37513259     0.07600
C1897       C  0.47275460  0.78073562  0.57494805    -0.22000
C1898       C  0.46308155  0.77840978  0.60423262     0.10000
C1899       C  0.43837554  0.76071064  0.61066908     0.10400
C1900       C  0.42227892  0.74789443  0.58736285    -0.16900
C1901       C  0.43000785  0.75284247  0.55768907    -0.27300
C1902       C  0.45695587  0.76743780  0.55164327     0.18700
C1903       C  0.47591830  0.79790647  0.62731661     0.12700
C1904       C  0.42792380  0.75685896  0.64206315    -0.11700
H1905       H  0.40197491  0.73642884  0.59238253     0.13000
C1906       C  0.46985136  0.76900775  0.52105897    -0.22500
H1907       H  0.49224270  0.79366257  0.57016200     0.08600
C1908       C  0.49929819  0.78917294  0.64571779     0.04900
C1909       C  0.50646668  0.80649119  0.67068027    -0.19800
C1910       C  0.49015850  0.83191299  0.67819225    -0.12000
C1911       C  0.46791302  0.84142475  0.65827814     0.13600
C1912       C  0.46158141  0.82451029  0.63294387    -0.22500
C1913       C  0.51579019  0.76108719  0.63960042    -0.05500
H1914       H  0.52380204  0.79918623  0.68541463     0.15200
C1915       C  0.44843368  0.86742553  0.66446005    -0.15700
H1916       H  0.44372405  0.83094975  0.61841902     0.09500
H1917       H  0.49290353  0.76080091  0.52149925     0.07300
H1918       H  0.46988792  0.79208858  0.51335907     0.08600
H1919       H  0.45769112  0.75492931  0.50511066     0.07600
H1920       H  0.42186572  0.77847399  0.65187160     0.02500
H1921       H  0.44574021  0.74687877  0.65549269     0.03000
H1922       H  0.40827367  0.74232987  0.64320665     0.06500
H1923       H  0.53342740  0.75734115  0.65622202     0.05400
H1924       H  0.52616775  0.76206904  0.61737819    -0.00300
H1925       H  0.50035485  0.74216516  0.64018204     0.01200
H1926       H  0.46141903  0.88798823  0.66501543     0.04800
H1927       H  0.43670463  0.86383836  0.68547964     0.06800
H1928       H  0.43132912  0.87020180  0.64710547     0.07600
C1929       C  0.30889100  0.91277734  0.54667373    -0.22000
C1930       C  0.30946706  0.88535346  0.56040465     0.10000
C1931       C  0.29466541  0.88160370  0.58758936     0.10400
C1932       C  0.28095954  0.90580476  0.60121386    -0.16900
C1933       C  0.28123885  0.93365052  0.58809035    -0.27300
C1934       C  0.29431391  0.93679408  0.55980122     0.18700
C1935       C  0.32599339  0.86077503  0.54641583     0.12700
C1936       C  0.29349626  0.85208055  0.60233149    -0.11700
H1937       H  0.27102088  0.90317799  0.62283389     0.13000
C1938       C  0.29245701  0.96472829  0.54236619    -0.22500
H1939       H  0.31968831  0.91539227  0.52545379     0.08600
C1940       C  0.31417528  0.84421721  0.52270465     0.04900
C1941       C  0.32900798  0.81884160  0.51289910    -0.19800
C1942       C  0.35519028  0.80927164  0.52654814    -0.12000
C1943       C  0.36748225  0.82672023  0.54970652     0.13600
C1944       C  0.35292205  0.85244697  0.55892167    -0.22500
C1945       C  0.28532701  0.85266096  0.50860210    -0.05500
H1946       H  0.31947098  0.80569331  0.49518487     0.15200
C1947       C  0.39427777  0.81743218  0.56681429    -0.15700
H1948       H  0.36173633  0.86539992  0.57717070     0.09500
H1949       H  0.28355976  0.95980275  0.51994283     0.07300
H1950       H  0.27740296  0.98099730  0.55261344     0.08600
H1951       H  0.31477624  0.97450884  0.54011334     0.07600
H1952       H  0.31610846  0.84471139  0.60802847     0.02500
H1953       H  0.28314778  0.83574855  0.58712795     0.03000
H1954       H  0.28035621  0.85284457  0.62306668     0.06500
H1955       H  0.27886026  0.83699202  0.49074098     0.05400
H1956       H  0.28724811  0.87482092  0.49878109    -0.00300
H1957       H  0.26758634  0.85289960  0.52554023     0.01200
H1958       H  0.41391103  0.81667167  0.55230635     0.04800
H1959       H  0.38995464  0.79577663  0.57677926     0.06800
H1960       H  0.39944437  0.83297431  0.58520366     0.07600
C1961       C  0.39143553  0.91075192  0.71720714    -0.22000
C1962       C  0.39937176  0.93675847  0.70300832     0.10000
C1963       C  0.42891659  0.94634924  0.70419136     0.10400
C1964       C  0.45014907  0.92887529  0.71837720    -0.16900
C1965       C  0.44270951  0.90170621  0.73102273    -0.27300
C1966       C  0.41255810  0.89294926  0.73104265     0.18700
C1967       C  0.37637386  0.95235205  0.68571187     0.12700
C1968       C  0.43821414  0.97436148  0.68943605    -0.11700
H1969       H  0.47299551  0.93590267  0.71844535     0.13000
C1970       C  0.40239450  0.86390966  0.74316970    -0.22500
H1971       H  0.36857780  0.90374514  0.71633295     0.08600
C1972       C  0.36653680  0.94121329  0.65812064     0.04900
C1973       C  0.34202390  0.95404941  0.64435445    -0.19800
C1974       C  0.32692770  0.97774472  0.65751005    -0.12000
C1975       C  0.33829143  0.99033801  0.68400902     0.13600
C1976       C  0.36263018  0.97721750  0.69796584    -0.22500
C1977       C  0.38152144  0.91535757  0.64346673    -0.05500
H1978       H  0.33370680  0.94440338  0.62399064     0.15200
C1979       C  0.32550531  0.01766202  0.69801796    -0.15700
H1980       H  0.37056251  0.98609166  0.71886817     0.09500
H1981       H  0.37885112  0.85952298  0.73787984     0.07300
H1982       H  0.40425876  0.86404704  0.76761536     0.08600
H1983       H  0.41550148  0.84562896  0.73344863     0.07600
H1984       H  0.42621317  0.99323100  0.69945049     0.02500
H1985       H  0.43309262  0.97306332  0.66541496     0.03000
H1986       H  0.46225273  0.97845120  0.69197686     0.06500
H1987       H  0.37134131  0.90975563  0.62174520     0.05400
H1988       H  0.37985329  0.89574745  0.65774497    -0.00300
H1989       H  0.40513558  0.92060501  0.63968404     0.01200
H1990       H  0.31633190  0.01236790  0.72011250     0.04800
H1991       H  0.30793839  0.02773138  0.68439982     0.06800
H1992       H  0.34317568  0.03437110  0.70079677     0.07600
loop_ 
_geom_bond_atom_site_label_1 
_geom_bond_atom_site_label_2 
_geom_bond_distance 
_geom_bond_site_symmetry_2 
_ccdc_geom_bond_type 
C1            C2   1.538       .  S
C1            C7   1.533   1_565  S
C1            C5   1.534       .  S
C1          C315   1.507       .  S
C2            H9   1.086       .  S
C2            C3   1.370       .  D
C3            C4   1.541       .  S
C3         C1933   1.490       .  S
C4            C8   1.544   1_565  S
C4            C6   1.542       .  S
C4           H10   1.110       .  S
C5           H11   1.086       .  S
C5            C6   1.366       .  D
C6         C1974   1.492       .  S
C7           H12   1.086       .  S
C7            C8   1.366       .  D
C8          C185   1.479       .  S
C13          C14   1.538       .  S
C13          C19   1.532       .  S
C13          C17   1.531       .  S
C13         C237   1.509       .  S
C14          H21   1.086       .  S
C14          C15   1.372       .  D
C15          C16   1.547       .  S
C15        C1901   1.495       .  S
C16          C20   1.544       .  S
C16          C18   1.546       .  S
C16          H22   1.107       .  S
C17          H23   1.087       .  S
C17          C18   1.366       .  D
C18        C1942   1.497       .  S
C19          H24   1.086       .  S
C19          C20   1.364       .  D
C20         C213   1.478       .  S
C25          C26   1.539       .  S
C25          C31   1.530       .  S
C25          C29   1.535       .  S
C25         C432   1.515       .  S
C26          H33   1.082       .  S
C26          C27   1.373       .  D
C27          C28   1.547       .  S
C27        C1965   1.500       .  S
C28          C32   1.546       .  S
C28          C30   1.547       .  S
C28          H34   1.106       .  S
C29          H35   1.086       .  S
C29          C30   1.365       .  D
C30        C1910   1.502       .  S
C31          H36   1.086       .  S
C31          C32   1.367       .  D
C32         C148   1.483       .  S
C37          C38   1.538       .  S
C37          C43   1.533   1_655  S
C37          C41   1.532       .  S
C37         C367   1.507       .  S
C38          H45   1.083       .  S
C38          C39   1.371       .  D
C39          C40   1.541       .  S
C39        C1837   1.493       .  S
C40          C44   1.543   1_655  S
C40          C42   1.543       .  S
C40          H46   1.110       .  S
C41          H47   1.086       .  S
C41          C42   1.366       .  D
C42        C1869   1.492       .  S
C43          H48   1.086       .  S
C43          C44   1.365       .  D
C44         C263   1.480       .  S
C49          C50   1.544       .  S
C49          C55   1.535       .  S
C49          C53   1.528       .  S
C49         C393   1.511       .  S
C50          H57   1.085       .  S
C50          C51   1.379       .  D
C51          C52   1.545       .  S
C51        C1805   1.508       .  S
C52          C56   1.541       .  S
C52          C54   1.549       .  S
C52          H58   1.107       .  S
C53          H59   1.087       .  S
C53          C54   1.360       .  D
C54        C1846   1.486       .  S
C55          H60   1.086       .  S
C55          C56   1.364       .  D
C56         C291   1.480       .  S
C61          C62   1.536       .  S
C61          C67   1.533       .  S
C61          C65   1.532       .  S
C61         C200   1.505       .  S
C62          H69   1.083       .  S
C62          C63   1.370       .  D
C63          C64   1.543       .  S
C63        C1878   1.493       .  S
C64          C68   1.548       .  S
C64          C66   1.539       .  S
C64          H70   1.110       .  S
C65          H71   1.087       .  S
C65          C66   1.363       .  D
C66        C1814   1.484       .  S
C67          H72   1.086       .  S
C67          C68   1.367       .  D
C68         C224   1.482       .  S
C73          C74   1.542       .  S
C73          C79   1.524       .  S
C73          C77   1.533       .  S
C73         C447   1.507       .  S
C74          H81   1.086       .  S
C74          C75   1.369       .  D
C75          C76   1.532       .  S
C75        C1773   1.487       .  S
C76          C80   1.553       .  S
C76          C78   1.554       .  S
C76          H82   1.108       .  S
C77          H83   1.078       .  S
C77          C78   1.368       .  D
C78        C1741   1.514       .  S
C79          H84   1.086       .  S
C79          C80   1.365       .  D
C80         C159   1.482       .  S
C85          C86   1.533       .  S
C85          C91   1.530       .  S
C85          C89   1.530       .  S
C85         C382   1.510       .  S
C86          H93   1.086       .  S
C86          C87   1.365       .  D
C87          C88   1.545       .  S
C87        C1750   1.483       .  S
C88          C92   1.548       .  S
C88          C90   1.559       .  S
C88          H94   1.100       .  S
C89          H95   1.085       .  S
C89          C90   1.377       .  D
C90        C1718   1.523       .  S
C91          H96   1.086       .  S
C91          C92   1.364       .  D
C92         C276   1.484       .  S
C97          C98   1.541       .  S
C97         C103   1.537       .  S
C97         C101   1.533   1_554  S
C97         C406   1.511       .  S
C98         H105   1.086       .  S
C98          C99   1.370   1_554  D
C99         C100   1.537       .  S
C99        C1709   1.485       .  S
C100        C104   1.538       .  S
C100        C102   1.541       .  S
C100        H106   1.111       .  S
C101        H107   1.086       .  S
C101        C102   1.367       .  D
C102       C1782   1.488       .  S
C103        H108   1.086       .  S
C103        C104   1.366   1_554  D
C104        C341   1.476       .  S
C109        C110   1.534       .  S
C109        C115   1.530   1_545  S
C109        C113   1.534       .  S
C109        C172   1.509       .  S
C110        H117   1.085       .  S
C110        C111   1.368       .  D
C111        C112   1.538       .  S
C111       C1645   1.484       .  S
C112        C116   1.541   1_545  S
C112        C114   1.554       .  S
C112        H118   1.093   1_545  S
C113        H119   1.082       .  S
C113        C114   1.381       .  D
C114       C1677   1.530       .  S
C115        H120   1.086       .  S
C115        C116   1.361       .  D
C116        C302   1.478       .  S
C121        C122   1.536       .  S
C121        C127   1.528   1_554  S
C121        C125   1.537       .  S
C121        C419   1.510       .  S
C122        H129   1.085       .  S
C122        C123   1.369       .  D
C123        C124   1.540       .  S
C123       C1613   1.487       .  S
C124        C128   1.546   1_554  S
C124        C126   1.545       .  S
C124        H130   1.111       .  S
C125        H131   1.085       .  S
C125        C126   1.371       .  D
C126       C1654   1.494       .  S
C127        H132   1.086       .  S
C127        C128   1.364       .  D
C128        C328   1.483       .  S
C133        C134   1.534       .  S
C133        C139   1.538       .  S
C133        C137   1.533   1_655  S
C133        C356   1.508       .  S
C134        H141   1.086       .  S
C134        C135   1.363   1_655  D
C135        C136   1.536       .  S
C135       C1622   1.475       .  S
C136        C140   1.540       .  S
C136        C138   1.544       .  S
C136        H142   1.110       .  S
C137        H143   1.085       .  S
C137        C138   1.369       .  D
C138       C1686   1.497       .  S
C139        H144   1.086       .  S
C139        C140   1.369   1_655  D
C140        C252   1.480       .  S
O145        C148   1.267       .  A
O145       Cd150   2.499       .  S
C146        O155   1.262   1_545  A
C146        O151   1.270   1_545  A
C146       C1558   1.485       .  S
O147        C153   1.268       .  A
O147       Cd150   2.471       .  S
C148        O156   1.266       .  A
C149        O154   1.265       .  A
C149        O152   1.267       .  A
C149       C1517   1.487       .  S
Cd150       O157   2.451       .  S
Cd150       O156   2.466       .  S
Cd150       O155   2.423       .  S
Cd150       O151   2.489       .  S
Cd150       O154   2.455       .  S
Cd150       O152   2.459       .  S
C153        O157   1.264       .  A
C153       C1590   1.490       .  S
O158        C161   1.269       .  A
O158       Cd163   2.483       .  S
C159        O168   1.265       .  A
C159        O164   1.266       .  A
O160        C166   1.268       .  A
O160       Cd163   2.467       .  S
C161        O169   1.262       .  A
C161       C1549   1.491       .  S
C162        O167   1.268       .  A
C162        O165   1.264       .  A
C162       C1494   1.493       .  S
Cd163       O170   2.449       .  S
Cd163       O169   2.439       .  S
Cd163       O168   2.448       .  S
Cd163       O164   2.515       .  S
Cd163       O167   2.475       .  S
Cd163       O165   2.449       .  S
C166        O170   1.265       .  A
C166       C1462   1.489       .  S
O171        C174   1.267       .  A
O171       Cd176   2.500       .  S
C172        O181   1.266   1_545  A
C172        O177   1.266       .  A
O173        C179   1.265       .  A
O173       Cd176   2.477       .  S
C174        O182   1.261       .  A
C174       C1398   1.481       .  S
C175        O180   1.266       .  A
C175        O178   1.266       .  A
C175       C1430   1.490       .  S
Cd176       O183   2.465       .  S
Cd176       O182   2.434       .  S
Cd176       O181   2.475   1_545  S
Cd176       O177   2.475       .  S
Cd176       O180   2.463   1_545  S
Cd176       O178   2.448   1_545  S
C179        O183   1.266       .  A
C179       C1357   1.488       .  S
O184        C187   1.267       .  A
O184       Cd189   2.449       .  S
C185        O194   1.265       .  A
C185        O190   1.263       .  A
O186        C192   1.266       .  A
O186       Cd189   2.465       .  S
C187        O195   1.264       .  A
C187       C1389   1.485       .  S
C188        O193   1.267       .  A
C188        O191   1.264       .  A
C188       C1325   1.493       .  S
Cd189       O196   2.451       .  S
Cd189       O195   2.449       .  S
Cd189       O194   2.473       .  S
Cd189       O190   2.481       .  S
Cd189       O193   2.492       .  S
Cd189       O191   2.445       .  S
C192        O196   1.266       .  A
C192       C1485   1.491       .  S
O197        C200   1.265       .  A
O197       Cd202   2.454       .  S
C198        O207   1.264       .  A
C198        O203   1.266       .  A
C198       C1293   1.491       .  S
O199        C205   1.268       .  A
O199       Cd202   2.451       .  S
C200        O208   1.266       .  A
C201        O206   1.265       .  A
C201        O204   1.265       .  A
C201       C1270   1.483       .  S
Cd202       O209   2.440       .  S
Cd202       O208   2.486       .  S
Cd202       O207   2.451       .  S
Cd202       O203   2.476       .  S
Cd202       O206   2.467       .  S
Cd202       O204   2.452       .  S
C205        O209   1.264       .  A
C205       C1526   1.486       .  S
O210        C213   1.264       .  A
O210       Cd215   2.476       .  S
C211        O220   1.265       .  A
C211        O216   1.264       .  A
C211       C1302   1.490       .  S
O212        C218   1.266       .  A
O212       Cd215   2.476       .  S
C213        O221   1.266       .  A
C214        O219   1.266       .  A
C214        O217   1.263       .  A
C214       C1421   1.488       .  S
Cd215       O222   2.463       .  S
Cd215       O221   2.464       .  S
Cd215       O220   2.456       .  S
Cd215       O216   2.465       .  S
Cd215       O219   2.480       .  S
Cd215       O217   2.445       .  S
C218        O222   1.265       .  A
C218       C1229   1.494       .  S
O223        C226   1.266       .  A
O223       Cd228   2.471   1_455  S
C224        O233   1.266       .  A
C224        O229   1.264       .  A
O225        C231   1.267       .  A
O225       Cd228   2.478       .  S
C226        O234   1.262       .  A
C226       C1165   1.490       .  S
C227        O232   1.265       .  A
C227        O230   1.265       .  A
C227       C1197   1.493   1_655  S
Cd228       O235   2.447       .  S
Cd228       O234   2.459   1_655  S
Cd228       O233   2.475       .  S
Cd228       O229   2.499       .  S
Cd228       O232   2.479       .  S
Cd228       O230   2.463       .  S
C231        O235   1.265       .  A
C231       C1142   1.491       .  S
O236        C239   1.266       .  A
O236       Cd241   2.486       .  S
C237        O246   1.267       .  A
C237        O242   1.265       .  A
O238        C244   1.268       .  A
O238       Cd241   2.479       .  S
C239        O247   1.263       .  A
C239       C1174   1.476       .  S
C240        O245   1.266       .  A
C240        O243   1.266       .  A
C240       C1101   1.491       .  S
Cd241       O248   2.432       .  S
Cd241       O247   2.439       .  S
Cd241       O246   2.478       .  S
Cd241       O242   2.470       .  S
Cd241       O245   2.480       .  S
Cd241       O243   2.449       .  S
C244        O248   1.264       .  A
C244       C1078   1.485       .  S
O249        C252   1.265       .  A
O249       Cd254   2.473       .  S
C250        O259   1.264       .  A
C250        O255   1.265       .  A
C250       C1014   1.476       .  S
O251        C257   1.268       .  A
O251       Cd254   2.500   1_655  S
C252        O260   1.265       .  A
C253        O258   1.268       .  A
C253        O256   1.265       .  A
C253       C1334   1.491       .  S
Cd254       O261   2.420   1_455  S
Cd254       O260   2.484       .  S
Cd254       O259   2.479       .  S
Cd254       O255   2.452       .  S
Cd254       O258   2.461       .  S
Cd254       O256   2.446       .  S
C257        O261   1.261       .  A
C257       C1037   1.491       .  S
O262        C265   1.266       .  A
O262       Cd267   2.473       .  S
C263        O272   1.266       .  A
C263        O268   1.266       .  A
O264        C270   1.269       .  A
O264       Cd267   2.474       .  S
C265        O273   1.263       .  A
C265       C1005   1.477       .  S
C266        O271   1.265       .  A
C266        O269   1.265       .  A
C266        C973   1.482       .  S
Cd267       O274   2.459       .  S
Cd267       O273   2.458       .  S
Cd267       O272   2.463       .  S
Cd267       O268   2.488       .  S
Cd267       O271   2.454       .  S
Cd267       O269   2.491       .  S
C270        O274   1.266       .  A
C270       C1110   1.494       .  S
O275        C278   1.267       .  A
O275       Cd280   2.494       .  S
C276        O285   1.266       .  A
C276        O281   1.265       .  A
O277        C283   1.267       .  A
O277       Cd280   2.495       .  S
C278        O286   1.263       .  A
C278        C941   1.492       .  S
C279        O284   1.265       .  A
C279        O282   1.266       .  A
C279       C1133   1.494       .  S
Cd280       O287   2.460       .  S
Cd280       O286   2.455       .  S
Cd280       O285   2.471       .  S
Cd280       O281   2.500       .  S
Cd280       O284   2.474       .  S
Cd280       O282   2.475       .  S
C283        O287   1.267       .  A
C283        C909   1.495       .  S
O288        C291   1.264       .  A
O288       Cd293   2.484       .  S
C289        O298   1.263       .  A
C289        O294   1.268       .  A
C289        C950   1.492       .  S
O290        C296   1.267       .  A
O290       Cd293   2.481       .  S
C291        O299   1.266       .  A
C292        O297   1.266       .  A
C292        O295   1.265       .  A
C292       C1046   1.489       .  S
Cd293       O300   2.443       .  S
Cd293       O299   2.480       .  S
Cd293       O298   2.447       .  S
Cd293       O294   2.477       .  S
Cd293       O297   2.478       .  S
Cd293       O295   2.440       .  S
C296        O300   1.265       .  A
C296       C1453   1.492       .  S
O301        C304   1.265       .  A
O301       Cd306   2.484   1_556  S
C302        O311   1.266       .  A
C302        O307   1.264       .  A
O303        C309   1.264       .  A
O303       Cd306   2.460       .  S
C304        O312   1.263       .  A
C304        C845   1.477       .  S
C305        O310   1.267       .  A
C305        O308   1.264       .  A
C305        C877   1.492       .  S
Cd306       O313   2.465       .  S
Cd306       O312   2.454   1_554  S
Cd306       O311   2.472       .  S
Cd306       O307   2.467       .  S
Cd306       O310   2.470       .  S
Cd306       O308   2.451       .  S
C309        O313   1.266       .  A
C309        C813   1.481       .  S
O314        C317   1.266       .  A
O314       Cd319   2.476       .  S
C315        O324   1.267   1_565  A
C315        O320   1.264       .  A
O316        C322   1.269       .  A
O316       Cd319   2.487       .  S
C317        O325   1.262       .  A
C317        C854   1.488       .  S
C318        O323   1.268       .  A
C318        O321   1.263       .  A
C318        C790   1.492       .  S
Cd319       O326   2.440       .  S
Cd319       O325   2.451       .  S
Cd319       O324   2.489   1_565  S
Cd319       O320   2.460       .  S
Cd319       O323   2.483   1_565  S
Cd319       O321   2.448   1_565  S
C322        O326   1.263       .  A
C322       C1206   1.491       .  S
O327        C330   1.268   1_455  A
O327       Cd332   2.485       .  S
C328        O337   1.266       .  A
C328        O333   1.266       .  A
O329        C335   1.265       .  A
O329       Cd332   2.466       .  S
C330        O338   1.262       .  A
C330        C758   1.481       .  S
C331        O336   1.268       .  A
C331        O334   1.264       .  A
C331        C918   1.497       .  S
Cd332       O339   2.477       .  S
Cd332       O338   2.433   1_455  S
Cd332       O337   2.459       .  S
Cd332       O333   2.511       .  S
Cd332       O336   2.491       .  S
Cd332       O334   2.459       .  S
C335        O339   1.266       .  A
C335        C781   1.490       .  S
O340        C343   1.266       .  A
O340       Cd345   2.484       .  S
C341        O350   1.265   1_556  A
C341        O346   1.266       .  A
O342        C348   1.266       .  A
O342       Cd345   2.470       .  S
C343        O351   1.262       .  A
C343        C749   1.487       .  S
C344        O349   1.266       .  A
C344        O347   1.262       .  A
C344        C717   1.489       .  S
Cd345       O352   2.467       .  S
Cd345       O351   2.451       .  S
Cd345       O350   2.457   1_556  S
Cd345       O346   2.474       .  S
Cd345       O349   2.464   1_556  S
Cd345       O347   2.459   1_556  S
C348        O352   1.267       .  A
C348       C1581   1.495       .  S
O353        C356   1.264       .  A
O353       Cd358   2.451       .  S
C354        O363   1.265       .  A
C354        O359   1.265       .  A
C354        C685   1.489       .  S
O355        C361   1.268       .  A
O355       Cd358   2.474       .  S
C356        O364   1.266       .  A
C357        O362   1.264       .  A
C357        O360   1.265       .  A
C357        C726   1.489       .  S
Cd358       O365   2.439       .  S
Cd358       O364   2.508       .  S
Cd358       O363   2.462   1_545  S
Cd358       O359   2.470   1_545  S
Cd358       O362   2.482       .  S
Cd358       O360   2.467       .  S
C361        O365   1.263       .  A
C361       C1261   1.490   1_545  S
O366        C369   1.265       .  A
O366       Cd371   2.474       .  S
C367        O376   1.267   1_655  A
C367        O372   1.265       .  A
O368        C374   1.267       .  A
O368       Cd371   2.486       .  S
C369        O377   1.265       .  A
C369        C694   1.490       .  S
C370        O375   1.266       .  A
C370        O373   1.263       .  A
C370        C822   1.488       .  S
Cd371       O378   2.437       .  S
Cd371       O377   2.454       .  S
Cd371       O376   2.477   1_655  S
Cd371       O372   2.463       .  S
Cd371       O375   2.459   1_655  S
Cd371       O373   2.459   1_655  S
C374        O378   1.266       .  A
C374        C653   1.488       .  S
O379        C382   1.266       .  A
O379       Cd384   2.474       .  S
C380        O389   1.263       .  A
C380        O385   1.265       .  A
C380        C621   1.492       .  S
O381        C387   1.266       .  A
O381       Cd384   2.459       .  S
C382        O390   1.266       .  A
C383        O388   1.264       .  A
C383        O386   1.265       .  A
C383        C598   1.486       .  S
Cd384       O391   2.469       .  S
Cd384       O390   2.482       .  S
Cd384       O389   2.453   1_556  S
Cd384       O385   2.505   1_556  S
Cd384       O388   2.478       .  S
Cd384       O386   2.473       .  S
C387        O391   1.265       .  A
C387        C662   1.491       .  S
O392        C395   1.263       .  A
O392       Cd397   2.473       .  S
C393        O402   1.266       .  A
C393        O398   1.266       .  A
O394        C400   1.266       .  A
O394       Cd397   2.475       .  S
C395        O403   1.265       .  A
C395        C630   1.496       .  S
C396        O401   1.264       .  A
C396        O399   1.265       .  A
C396        C557   1.487       .  S
Cd397       O404   2.458       .  S
Cd397       O403   2.490       .  S
Cd397       O402   2.474       .  S
Cd397       O398   2.486       .  S
Cd397       O401   2.464       .  S
Cd397       O399   2.454       .  S
C400        O404   1.266       .  A
C400       C1238   1.486       .  S
O405        C408   1.265       .  A
O405       Cd410   2.478       .  S
C406        O415   1.265       .  A
C406        O411   1.264       .  A
O407        C413   1.266       .  A
O407       Cd410   2.483       .  S
C408        O416   1.265       .  A
C408        C534   1.492       .  S
C409        O414   1.268       .  A
C409        O412   1.263       .  A
C409       C1366   1.486       .  S
Cd410       O417   2.461       .  S
Cd410       O416   2.455       .  S
Cd410       O415   2.486       .  S
Cd410       O411   2.485       .  S
Cd410       O414   2.481       .  S
Cd410       O412   2.445       .  S
C413        O417   1.264       .  A
C413        C566   1.493       .  S
O418        C421   1.267       .  A
O418       Cd423   2.479       .  S
C419        O428   1.265       .  A
C419        O424   1.265       .  A
O420        C426   1.266       .  A
O420       Cd423   2.479       .  S
C421        O429   1.265       .  A
C421        C525   1.488       .  S
C422        O427   1.263       .  A
C422        O425   1.264       .  A
C422        C502   1.486       .  S
Cd423       O430   2.465       .  S
Cd423       O429   2.455       .  S
Cd423       O428   2.488       .  S
Cd423       O424   2.480       .  S
Cd423       O427   2.469   1_554  S
Cd423       O425   2.470   1_554  S
C426        O430   1.266       .  A
C426        C982   1.477       .  S
O431        C434   1.263       .  A
O431       Cd436   2.450       .  S
C432        O441   1.266       .  A
C432        O437   1.265       .  A
O433        C439   1.266       .  A
O433       Cd436   2.461       .  S
C434        O442   1.265       .  A
C434        C470   1.492       .  S
C435        O440   1.262       .  A
C435        O438   1.264       .  A
C435        C589   1.493       .  S
Cd436       O443   2.450       .  S
Cd436       O442   2.491       .  S
Cd436       O441   2.513       .  S
Cd436       O437   2.456       .  S
Cd436       O440   2.455       .  S
Cd436       O438   2.495       .  S
C439        O443   1.267       .  A
C439        C886   1.485       .  S
O444        C447   1.263       .  A
O444       Cd449   2.452       .  S
C445        O454   1.266       .  A
C445        O450   1.265       .  A
C445        C461   1.491       .  S
O446        C452   1.266       .  A
O446       Cd449   2.486       .  S
C447        O455   1.267       .  A
C448        O453   1.267       .  A
C448        O451   1.262       .  A
C448        C493   1.490       .  S
Cd449       O456   2.436       .  S
Cd449       O455   2.504       .  S
Cd449       O454   2.462       .  S
Cd449       O450   2.458       .  S
Cd449       O453   2.498       .  S
Cd449       O451   2.431       .  S
C452        O456   1.264       .  A
C452       C1069   1.491       .  S
C457        C458   1.400       .  A
C457        C462   1.404       .  A
C457        H467   1.084       .  S
C458        C463   1.482       .  S
C458        C459   1.408       .  A
C459        C464   1.506       .  S
C459        C460   1.403       .  A
C460        C461   1.409       .  A
C460        H465   1.083       .  S
C461        C462   1.422       .  A
C462        C466   1.509       .  S
C463        C468   1.407       .  A
C463        C472   1.401       .  A
C464        H480   1.110       .  S
C464        H481   1.110       .  S
C464        H482   1.111       .  S
C466        H477   1.110       .  S
C466        H478   1.111       .  S
C466        H479   1.110       .  S
C468        C473   1.507       .  S
C468        C469   1.402       .  A
C469        C470   1.410       .  A
C469        H474   1.084       .  S
C470        C471   1.421       .  A
C471        C475   1.507       .  S
C471        C472   1.406       .  A
C472        H476   1.084       .  S
C473        H483   1.111       .  S
C473        H484   1.110       .  S
C473        H485   1.110       .  S
C475        H486   1.111       .  S
C475        H487   1.110       .  S
C475        H488   1.110       .  S
C489        C490   1.397       .  A
C489        C494   1.401       .  A
C489        H499   1.085       .  S
C490        C495   1.479       .  S
C490        C491   1.407       .  A
C491        C496   1.506       .  S
C491        C492   1.406       .  A
C492        C493   1.410       .  A
C492        H497   1.084       .  S
C493        C494   1.422       .  A
C494        C498   1.509       .  S
C495        C500   1.408       .  A
C495        C504   1.400       .  A
C496        H512   1.110       .  S
C496        H513   1.110       .  S
C496        H514   1.111       .  S
C498        H509   1.110       .  S
C498        H510   1.111       .  S
C498        H511   1.110       .  S
C500        C505   1.508       .  S
C500        C501   1.401       .  A
C501        C502   1.407       .  A
C501        H506   1.084       .  S
C502        C503   1.419       .  A
C503        C507   1.507       .  S
C503        C504   1.406       .  A
C504        H508   1.084       .  S
C505        H515   1.111       .  S
C505        H516   1.110       .  S
C505        H517   1.110       .  S
C507        H518   1.109       .  S
C507        H519   1.110       .  S
C507        H520   1.111       .  S
C521        C522   1.400       .  A
C521        C526   1.405       .  A
C521        H531   1.084       .  S
C522        C527   1.480       .  S
C522        C523   1.408       .  A
C523        C528   1.507       .  S
C523        C524   1.403       .  A
C524        C525   1.408       .  A
C524        H529   1.084       .  S
C525        C526   1.420       .  A
C526        C530   1.507       .  S
C527        C532   1.407       .  A
C527        C536   1.400       .  A
C528        H544   1.110       .  S
C528        H545   1.110       .  S
C528        H546   1.111       .  S
C530        H541   1.110       .  S
C530        H542   1.111       .  S
C530        H543   1.111       .  S
C532        C537   1.507       .  S
C532        C533   1.402       .  A
C533        C534   1.410       .  A
C533        H538   1.084       .  S
C534        C535   1.422       .  A
C535        C539   1.508       .  S
C535        C536   1.406       .  A
C536        H540   1.084       .  S
C537        H547   1.111       .  S
C537        H548   1.110       .  S
C537        H549   1.110       .  S
C539        H550   1.110       .  S
C539        H551   1.110       .  S
C539        H552   1.111   1_554  S
C553        C554   1.400       .  A
C553        C558   1.406       .  A
C553        H563   1.084       .  S
C554        C559   1.480       .  S
C554        C555   1.408       .  A
C555        C560   1.507       .  S
C555        C556   1.401       .  A
C556        C557   1.408       .  A
C556        H561   1.083       .  S
C557        C558   1.420       .  A
C558        C562   1.507       .  S
C559        C564   1.407       .  A
C559        C568   1.399       .  A
C560        H576   1.110       .  S
C560        H577   1.110       .  S
C560        H578   1.111       .  S
C562        H573   1.111       .  S
C562        H574   1.109       .  S
C562        H575   1.110       .  S
C564        C569   1.506       .  S
C564        C565   1.405       .  A
C565        C566   1.411       .  A
C565        H570   1.084       .  S
C566        C567   1.422       .  A
C567        C571   1.508       .  S
C567        C568   1.403       .  A
C568        H572   1.084       .  S
C569        H579   1.111       .  S
C569        H580   1.110       .  S
C569        H581   1.110       .  S
C571        H582   1.111       .  S
C571        H583   1.110       .  S
C571        H584   1.110       .  S
C585        C586   1.400       .  A
C585        C590   1.408       .  A
C585        H595   1.084       .  S
C586        C591   1.482       .  S
C586        C587   1.408       .  A
C587        C592   1.508       .  S
C587        C588   1.402       .  A
C588        C589   1.409       .  A
C588        H593   1.083       .  S
C589        C590   1.422       .  A
C590        C594   1.507       .  S
C591        C596   1.410       .  A
C591        C600   1.400       .  A
C592        H608   1.110       .  S
C592        H609   1.110       .  S
C592        H610   1.111       .  S
C594        H605   1.110       .  S
C594        H606   1.111       .  S
C594        H607   1.110       .  S
C596        C601   1.507       .  S
C596        C597   1.403       .  A
C597        C598   1.405       .  A
C597        H602   1.084       .  S
C598        C599   1.420       .  A
C599        C603   1.507       .  S
C599        C600   1.407       .  A
C600        H604   1.084       .  S
C601        H611   1.111       .  S
C601        H612   1.110       .  S
C601        H613   1.109       .  S
C603        H614   1.110       .  S
C603        H615   1.110       .  S
C603        H616   1.111       .  S
C617        C618   1.403       .  A
C617        C622   1.410       .  A
C617        H627   1.084       .  S
C618        C623   1.486       .  S
C618        C619   1.409       .  A
C619        C624   1.508       .  S
C619        C620   1.401       .  A
C620        C621   1.408       .  A
C620        H625   1.084       .  S
C621        C622   1.421       .  A
C622        C626   1.507       .  S
C623        C628   1.409       .  A
C623        C632   1.399       .  A
C624        H640   1.110       .  S
C624        H641   1.110       .  S
C624        H642   1.111       .  S
C626        H637   1.110       .  S
C626        H638   1.111       .  S
C626        H639   1.110       .  S
C628        C633   1.506       .  S
C628        C629   1.406       .  A
C629        C630   1.410       .  A
C629        H634   1.084       .  S
C630        C631   1.423       .  A
C631        C635   1.508       .  S
C631        C632   1.406       .  A
C632        H636   1.084       .  S
C633        H643   1.111       .  S
C633        H644   1.110       .  S
C633        H645   1.110       .  S
C635        H646   1.110       .  S
C635        H647   1.110       .  S
C635        H648   1.111       .  S
C649        C650   1.401       .  A
C649        C654   1.409       .  A
C649        H659   1.084       .  S
C650        C655   1.480       .  S
C650        C651   1.409       .  A
C651        C656   1.508       .  S
C651        C652   1.399       .  A
C652        C653   1.406       .  A
C652        H657   1.084       .  S
C653        C654   1.420       .  A
C654        C658   1.507       .  S
C655        C660   1.409       .  A
C655        C664   1.399       .  A
C656        H672   1.110       .  S
C656        H673   1.109       .  S
C656        H674   1.111       .  S
C658        H669   1.110       .  S
C658        H670   1.111       .  S
C658        H671   1.110       .  S
C660        C665   1.507       .  S
C660        C661   1.403   1_554  A
C661        C662   1.409       .  A
C661        H666   1.084       .  S
C662        C663   1.422   1_556  A
C663        C667   1.507       .  S
C663        C664   1.405       .  A
C664        H668   1.084       .  S
C665        H675   1.111   1_554  S
C665        H676   1.110       .  S
C665        H677   1.109       .  S
C667        H678   1.110   1_554  S
C667        H679   1.110       .  S
C667        H680   1.111       .  S
C681        C682   1.400       .  A
C681        C686   1.406       .  A
C681        H691   1.084       .  S
C682        C687   1.480       .  S
C682        C683   1.407       .  A
C683        C688   1.507       .  S
C683        C684   1.402       .  A
C684        C685   1.408       .  A
C684        H689   1.083       .  S
C685        C686   1.421       .  A
C686        C690   1.507       .  S
C687        C692   1.407       .  A
C687        C696   1.400       .  A
C688        H704   1.110       .  S
C688        H705   1.110       .  S
C688        H706   1.111       .  S
C690        H701   1.111       .  S
C690        H702   1.110       .  S
C690        H703   1.110       .  S
C692        C697   1.507       .  S
C692        C693   1.402       .  A
C693        C694   1.409       .  A
C693        H698   1.084       .  S
C694        C695   1.422       .  A
C695        C699   1.508       .  S
C695        C696   1.406       .  A
C696        H700   1.084       .  S
C697        H707   1.111       .  S
C697        H708   1.110       .  S
C697        H709   1.110       .  S
C699        H710   1.111       .  S
C699        H711   1.110   1_655  S
C699        H712   1.110       .  S
C713        C714   1.399       .  A
C713        C718   1.405       .  A
C713        H723   1.084       .  S
C714        C719   1.480       .  S
C714        C715   1.408       .  A
C715        C720   1.507       .  S
C715        C716   1.401       .  A
C716        C717   1.407       .  A
C716        H721   1.084       .  S
C717        C718   1.423       .  A
C718        C722   1.508       .  S
C719        C724   1.410       .  A
C719        C728   1.399       .  A
C720        H736   1.110       .  S
C720        H737   1.110       .  S
C720        H738   1.111       .  S
C722        H733   1.110       .  S
C722        H734   1.111       .  S
C722        H735   1.110       .  S
C724        C729   1.508       .  S
C724        C725   1.401       .  A
C725        C726   1.406       .  A
C725        H730   1.084       .  S
C726        C727   1.421       .  A
C727        C731   1.507       .  S
C727        C728   1.408       .  A
C728        H732   1.084       .  S
C729        H739   1.111       .  S
C729        H740   1.110       .  S
C729        H741   1.109       .  S
C731        H742   1.110       .  S
C731        H743   1.110       .  S
C731        H744   1.111       .  S
C745        C746   1.398       .  A
C745        C750   1.403       .  A
C745        H755   1.084       .  S
C746        C751   1.479       .  S
C746        C747   1.409       .  A
C747        C752   1.507       .  S
C747        C748   1.404       .  A
C748        C749   1.408       .  A
C748        H753   1.083       .  S
C749        C750   1.421       .  A
C750        C754   1.508       .  S
C751        C756   1.410       .  A
C751        C760   1.399       .  A
C752        H768   1.110       .  S
C752        H769   1.110       .  S
C752        H770   1.111       .  S
C754        H765   1.111       .  S
C754        H766   1.110       .  S
C754        H767   1.110       .  S
C756        C761   1.506       .  S
C756        C757   1.404       .  A
C757        C758   1.404       .  A
C757        H762   1.084       .  S
C758        C759   1.420       .  A
C759        C763   1.509       .  S
C759        C760   1.403       .  A
C760        H764   1.084       .  S
C761        H771   1.111       .  S
C761        H772   1.110       .  S
C761        H773   1.110       .  S
C763        H774   1.111       .  S
C763        H775   1.110       .  S
C763        H776   1.111       .  S
C777        C778   1.399       .  A
C777        C782   1.407       .  A
C777        H787   1.084       .  S
C778        C783   1.482       .  S
C778        C779   1.411       .  A
C779        C784   1.508       .  S
C779        C780   1.404       .  A
C780        C781   1.407       .  A
C780        H785   1.083       .  S
C781        C782   1.421       .  A
C782        C786   1.507       .  S
C783        C788   1.408       .  A
C783        C792   1.399       .  A
C784        H800   1.110       .  S
C784        H801   1.110       .  S
C784        H802   1.111       .  S
C786        H797   1.110       .  S
C786        H798   1.111       .  S
C786        H799   1.110       .  S
C788        C793   1.506       .  S
C788        C789   1.404       .  A
C789        C790   1.409       .  A
C789        H794   1.084       .  S
C790        C791   1.423       .  A
C791        C795   1.508       .  S
C791        C792   1.405       .  A
C792        H796   1.084       .  S
C793        H803   1.111       .  S
C793        H804   1.110       .  S
C793        H805   1.110       .  S
C795        H806   1.111       .  S
C795        H807   1.109       .  S
C795        H808   1.111       .  S
C809        C810   1.399       .  A
C809        C814   1.404       .  A
C809        H819   1.084       .  S
C810        C815   1.479       .  S
C810        C811   1.410       .  A
C811        C816   1.507       .  S
C811        C812   1.403       .  A
C812        C813   1.405       .  A
C812        H817   1.084       .  S
C813        C814   1.418       .  A
C814        C818   1.507       .  S
C815        C820   1.408       .  A
C815        C824   1.399       .  A
C816        H832   1.110       .  S
C816        H833   1.110       .  S
C816        H834   1.111       .  S
C818        H829   1.110       .  S
C818        H830   1.111       .  S
C818        H831   1.110       .  S
C820        C825   1.507       .  S
C820        C821   1.400       .  A
C821        C822   1.407       .  A
C821        H826   1.083       .  S
C822        C823   1.422       .  A
C823        C827   1.508       .  S
C823        C824   1.406       .  A
C824        H828   1.084       .  S
C825        H835   1.111       .  S
C825        H836   1.110       .  S
C825        H837   1.110       .  S
C827        H838   1.110       .  S
C827        H839   1.110       .  S
C827        H840   1.111       .  S
C841        C842   1.398       .  A
C841        C846   1.400       .  A
C841        H851   1.085       .  S
C842        C847   1.480       .  S
C842        C843   1.411       .  A
C843        C848   1.506       .  S
C843        C844   1.406       .  A
C844        C845   1.405       .  A
C844        H849   1.084       .  S
C845        C846   1.419       .  A
C846        C850   1.510       .  S
C847        C852   1.409       .  A
C847        C856   1.399       .  A
C848        H864   1.110       .  S
C848        H865   1.110       .  S
C848        H866   1.111       .  S
C850        H861   1.111       .  S
C850        H862   1.110       .  S
C850        H863   1.106       .  S
C852        C857   1.507       .  S
C852        C853   1.402       .  A
C853        C854   1.407       .  A
C853        H858   1.084       .  S
C854        C855   1.422       .  A
C855        C859   1.508       .  S
C855        C856   1.405       .  A
C856        H860   1.084       .  S
C857        H867   1.111       .  S
C857        H868   1.110       .  S
C857        H869   1.110       .  S
C859        H870   1.111       .  S
C859        H871   1.111       .  S
C859        H872   1.109       .  S
C873        C874   1.397       .  A
C873        C878   1.404       .  A
C873        H883   1.084       .  S
C874        C879   1.479       .  S
C874        C875   1.408       .  A
C875        C880   1.507       .  S
C875        C876   1.404   1_556  A
C876        C877   1.410       .  A
C876        H881   1.083       .  S
C877        C878   1.423   1_554  A
C878        C882   1.508       .  S
C879        C884   1.409       .  A
C879        C888   1.399       .  A
C880        H896   1.110       .  S
C880        H897   1.110       .  S
C880        H898   1.111       .  S
C882        H893   1.110       .  S
C882        H894   1.111       .  S
C882        H895   1.110   1_556  S
C884        C889   1.507       .  S
C884        C885   1.401       .  A
C885        C886   1.405       .  A
C885        H890   1.084       .  S
C886        C887   1.420       .  A
C887        C891   1.507       .  S
C887        C888   1.406       .  A
C888        H892   1.084       .  S
C889        H899   1.111       .  S
C889        H900   1.110       .  S
C889        H901   1.110       .  S
C891        H902   1.110       .  S
C891        H903   1.110       .  S
C891        H904   1.111       .  S
C905        C906   1.402       .  A
C905        C910   1.411       .  A
C905        H915   1.084       .  S
C906        C911   1.487       .  S
C906        C907   1.410       .  A
C907        C912   1.508       .  S
C907        C908   1.402       .  A
C908        C909   1.407       .  A
C908        H913   1.083       .  S
C909        C910   1.422       .  A
C910        C914   1.507       .  S
C911        C916   1.410   1_655  A
C911        C920   1.399       .  A
C912        H928   1.110       .  S
C912        H929   1.110       .  S
C912        H930   1.111       .  S
C914        H925   1.110       .  S
C914        H926   1.111       .  S
C914        H927   1.110       .  S
C916        C921   1.506       .  S
C916        C917   1.406       .  A
C917        C918   1.409       .  A
C917        H922   1.083       .  S
C918        C919   1.424   1_455  A
C919        C923   1.508       .  S
C919        C920   1.407       .  A
C920        H924   1.084       .  S
C921        H931   1.111       .  S
C921        H932   1.110       .  S
C921        H933   1.110   1_455  S
C923        H934   1.110   1_655  S
C923        H935   1.110       .  S
C923        H936   1.111       .  S
C937        C938   1.398       .  A
C937        C942   1.405       .  A
C937        H947   1.084       .  S
C938        C943   1.482       .  S
C938        C939   1.410       .  A
C939        C944   1.507       .  S
C939        C940   1.405       .  A
C940        C941   1.407       .  A
C940        H945   1.084       .  S
C941        C942   1.423       .  A
C942        C946   1.508       .  S
C943        C948   1.409       .  A
C943        C952   1.399       .  A
C944        H960   1.110       .  S
C944        H961   1.110       .  S
C944        H962   1.111       .  S
C946        H957   1.111       .  S
C946        H958   1.111       .  S
C946        H959   1.110       .  S
C948        C953   1.506       .  S
C948        C949   1.404       .  A
C949        C950   1.408       .  A
C949        H954   1.084       .  S
C950        C951   1.424       .  A
C951        C955   1.508       .  S
C951        C952   1.405       .  A
C952        H956   1.084       .  S
C953        H963   1.111       .  S
C953        H964   1.110       .  S
C953        H965   1.110       .  S
C955        H966   1.110       .  S
C955        H967   1.110       .  S
C955        H968   1.111       .  S
C969        C970   1.400       .  A
C969        C974   1.403       .  A
C969        H979   1.084       .  S
C970        C975   1.485       .  S
C970        C971   1.412       .  A
C971        C976   1.505       .  S
C971        C972   1.409       .  A
C972        C973   1.405       .  A
C972        H977   1.084       .  S
C973        C974   1.417       .  A
C974        C978   1.509       .  S
C975        C980   1.411       .  A
C975        C984   1.402       .  A
C976        H992   1.110       .  S
C976        H993   1.110       .  S
C976        H994   1.111       .  S
C978        H989   1.109       .  S
C978        H990   1.111       .  S
C978        H991   1.111       .  S
C980        C985   1.507       .  S
C980        C981   1.404       .  A
C981        C982   1.403       .  A
C981        H986   1.084       .  S
C982        C983   1.417       .  A
C983        C987   1.508       .  S
C983        C984   1.406       .  A
C984        H988   1.084       .  S
C985        H995   1.111       .  S
C985        H996   1.110       .  S
C985        H997   1.111       .  S
C987        H998   1.110       .  S
C987        H999   1.107       .  S
C987       H1000   1.110       .  S
C1001      C1002   1.401       .  A
C1001      C1006   1.402       .  A
C1001      H1011   1.085       .  S
C1002      C1007   1.486       .  S
C1002      C1003   1.413       .  A
C1003      C1008   1.507       .  S
C1003      C1004   1.406       .  A
C1004      C1005   1.404       .  A
C1004      H1009   1.084       .  S
C1005      C1006   1.419       .  A
C1006      C1010   1.510       .  S
C1007      C1012   1.412       .  A
C1007      C1016   1.405       .  A
C1008      H1024   1.109       .  S
C1008      H1025   1.110       .  S
C1008      H1026   1.111       .  S
C1010      H1021   1.110       .  S
C1010      H1022   1.111       .  S
C1010      H1023   1.104       .  S
C1012      C1017   1.508       .  S
C1012      C1013   1.400       .  A
C1013      C1014   1.403       .  A
C1013      H1018   1.084       .  S
C1014      C1015   1.415       .  A
C1015      C1019   1.507       .  S
C1015      C1016   1.406       .  A
C1016      H1020   1.084       .  S
C1017      H1027   1.111   1_455  S
C1017      H1028   1.109       .  S
C1017      H1029   1.110       .  S
C1019      H1030   1.111       .  S
C1019      H1031   1.107       .  S
C1019      H1032   1.110       .  S
C1033      C1034   1.395       .  A
C1033      C1038   1.401       .  A
C1033      H1043   1.085       .  S
C1034      C1039   1.478       .  S
C1034      C1035   1.408       .  A
C1035      C1040   1.506       .  S
C1035      C1036   1.406       .  A
C1036      C1037   1.410       .  A
C1036      H1041   1.083       .  S
C1037      C1038   1.424       .  A
C1038      C1042   1.509       .  S
C1039      C1044   1.408       .  A
C1039      C1048   1.399       .  A
C1040      H1056   1.110       .  S
C1040      H1057   1.110       .  S
C1040      H1058   1.111       .  S
C1042      H1053   1.110       .  S
C1042      H1054   1.111       .  S
C1042      H1055   1.110       .  S
C1044      C1049   1.508       .  S
C1044      C1045   1.400       .  A
C1045      C1046   1.408       .  A
C1045      H1050   1.083       .  S
C1046      C1047   1.421       .  A
C1047      C1051   1.507       .  S
C1047      C1048   1.407       .  A
C1048      H1052   1.084       .  S
C1049      H1059   1.111       .  S
C1049      H1060   1.110       .  S
C1049      H1061   1.110       .  S
C1051      H1062   1.110       .  S
C1051      H1063   1.110       .  S
C1051      H1064   1.111       .  S
C1065      C1066   1.401       .  A
C1065      C1070   1.407       .  A
C1065      H1075   1.085       .  S
C1066      C1071   1.479       .  S
C1066      C1067   1.407       .  A
C1067      C1072   1.507       .  S
C1067      C1068   1.400       .  A
C1068      C1069   1.409       .  A
C1068      H1073   1.084       .  S
C1069      C1070   1.421       .  A
C1070      C1074   1.507       .  S
C1071      C1076   1.408       .  A
C1071      C1080   1.399       .  A
C1072      H1088   1.110       .  S
C1072      H1089   1.110       .  S
C1072      H1090   1.111       .  S
C1074      H1085   1.111       .  S
C1074      H1086   1.110       .  S
C1074      H1087   1.110       .  S
C1076      C1081   1.505       .  S
C1076      C1077   1.405       .  A
C1077      C1078   1.408       .  A
C1077      H1082   1.084       .  S
C1078      C1079   1.420       .  A
C1079      C1083   1.509       .  S
C1079      C1080   1.402       .  A
C1080      H1084   1.085       .  S
C1081      H1091   1.111       .  S
C1081      H1092   1.110       .  S
C1081      H1093   1.110       .  S
C1083      H1094   1.111       .  S
C1083      H1095   1.109       .  S
C1083      H1096   1.111       .  S
C1097      C1098   1.402       .  A
C1097      C1102   1.408       .  A
C1097      H1107   1.084       .  S
C1098      C1103   1.483       .  S
C1098      C1099   1.408       .  A
C1099      C1104   1.507       .  S
C1099      C1100   1.402       .  A
C1100      C1101   1.408       .  A
C1100      H1105   1.084       .  S
C1101      C1102   1.420       .  A
C1102      C1106   1.507       .  S
C1103      C1108   1.408       .  A
C1103      C1112   1.400       .  A
C1104      H1120   1.110       .  S
C1104      H1121   1.110       .  S
C1104      H1122   1.111       .  S
C1106      H1117   1.111       .  S
C1106      H1118   1.109       .  S
C1106      H1119   1.110       .  S
C1108      C1113   1.506       .  S
C1108      C1109   1.405       .  A
C1109      C1110   1.409       .  A
C1109      H1114   1.083       .  S
C1110      C1111   1.422       .  A
C1111      C1115   1.508       .  S
C1111      C1112   1.406       .  A
C1112      H1116   1.084       .  S
C1113      H1123   1.111       .  S
C1113      H1124   1.110       .  S
C1113      H1125   1.110       .  S
C1115      H1126   1.110       .  S
C1115      H1127   1.110       .  S
C1115      H1128   1.111       .  S
C1129      C1130   1.401       .  A
C1129      C1134   1.407       .  A
C1129      H1139   1.084       .  S
C1130      C1135   1.486       .  S
C1130      C1131   1.410       .  A
C1131      C1136   1.508       .  S
C1131      C1132   1.404       .  A
C1132      C1133   1.409       .  A
C1132      H1137   1.083       .  S
C1133      C1134   1.421       .  A
C1134      C1138   1.507       .  S
C1135      C1140   1.410       .  A
C1135      C1144   1.400       .  A
C1136      H1152   1.109       .  S
C1136      H1153   1.110       .  S
C1136      H1154   1.111       .  S
C1138      H1149   1.111       .  S
C1138      H1150   1.109       .  S
C1138      H1151   1.110       .  S
C1140      C1145   1.506       .  S
C1140      C1141   1.406       .  A
C1141      C1142   1.409       .  A
C1141      H1146   1.084       .  S
C1142      C1143   1.421       .  A
C1143      C1147   1.509       .  S
C1143      C1144   1.404       .  A
C1144      H1148   1.084       .  S
C1145      H1155   1.111       .  S
C1145      H1156   1.110       .  S
C1145      H1157   1.110       .  S
C1147      H1158   1.111       .  S
C1147      H1159   1.110       .  S
C1147      H1160   1.111       .  S
C1161      C1162   1.399       .  A
C1161      C1166   1.406       .  A
C1161      H1171   1.084       .  S
C1162      C1167   1.479       .  S
C1162      C1163   1.408       .  A
C1163      C1168   1.507       .  S
C1163      C1164   1.402       .  A
C1164      C1165   1.408       .  A
C1164      H1169   1.084       .  S
C1165      C1166   1.422       .  A
C1166      C1170   1.508       .  S
C1167      C1172   1.411       .  A
C1167      C1176   1.398       .  A
C1168      H1184   1.110       .  S
C1168      H1185   1.110       .  S
C1168      H1186   1.111       .  S
C1170      H1181   1.109       .  S
C1170      H1182   1.111       .  S
C1170      H1183   1.110       .  S
C1172      C1177   1.506       .  S
C1172      C1173   1.406       .  A
C1173      C1174   1.404       .  A
C1173      H1178   1.084       .  S
C1174      C1175   1.420       .  A
C1175      C1179   1.510       .  S
C1175      C1176   1.400       .  A
C1176      H1180   1.085       .  S
C1177      H1187   1.111       .  S
C1177      H1188   1.110       .  S
C1177      H1189   1.110       .  S
C1179      H1190   1.110       .  S
C1179      H1191   1.106       .  S
C1179      H1192   1.111       .  S
C1193      C1194   1.400       .  A
C1193      C1198   1.407       .  A
C1193      H1203   1.084       .  S
C1194      C1199   1.483       .  S
C1194      C1195   1.408       .  A
C1195      C1200   1.507       .  S
C1195      C1196   1.403       .  A
C1196      C1197   1.409       .  A
C1196      H1201   1.083       .  S
C1197      C1198   1.422       .  A
C1198      C1202   1.507   1_455  S
C1199      C1204   1.408       .  A
C1199      C1208   1.399       .  A
C1200      H1216   1.110       .  S
C1200      H1217   1.110       .  S
C1200      H1218   1.111       .  S
C1202      H1213   1.111       .  S
C1202      H1214   1.110       .  S
C1202      H1215   1.110       .  S
C1204      C1209   1.506       .  S
C1204      C1205   1.405       .  A
C1205      C1206   1.408       .  A
C1205      H1210   1.084       .  S
C1206      C1207   1.423       .  A
C1207      C1211   1.509       .  S
C1207      C1208   1.405       .  A
C1208      H1212   1.084       .  S
C1209      H1219   1.111       .  S
C1209      H1220   1.110       .  S
C1209      H1221   1.110       .  S
C1211      H1222   1.111       .  S
C1211      H1223   1.110       .  S
C1211      H1224   1.110       .  S
C1225      C1226   1.401       .  A
C1225      C1230   1.406       .  A
C1225      H1235   1.084       .  S
C1226      C1231   1.485       .  S
C1226      C1227   1.409       .  A
C1227      C1232   1.507       .  S
C1227      C1228   1.404       .  A
C1228      C1229   1.410       .  A
C1228      H1233   1.084       .  S
C1229      C1230   1.421       .  A
C1230      C1234   1.507       .  S
C1231      C1236   1.410       .  A
C1231      C1240   1.401       .  A
C1232      H1248   1.109       .  S
C1232      H1249   1.110       .  S
C1232      H1250   1.111       .  S
C1234      H1245   1.111       .  S
C1234      H1246   1.109       .  S
C1234      H1247   1.110       .  S
C1236      C1241   1.506       .  S
C1236      C1237   1.406       .  A
C1237      C1238   1.408       .  A
C1237      H1242   1.083       .  S
C1238      C1239   1.417       .  A
C1239      C1243   1.508       .  S
C1239      C1240   1.404       .  A
C1240      H1244   1.084       .  S
C1241      H1251   1.111       .  S
C1241      H1252   1.109       .  S
C1241      H1253   1.110       .  S
C1243      H1254   1.111       .  S
C1243      H1255   1.109       .  S
C1243      H1256   1.111       .  S
C1257      C1258   1.398       .  A
C1257      C1262   1.403       .  A
C1257      H1267   1.084       .  S
C1258      C1263   1.481       .  S
C1258      C1259   1.409       .  A
C1259      C1264   1.507       .  S
C1259      C1260   1.404       .  A
C1260      C1261   1.409       .  A
C1260      H1265   1.083   1_565  S
C1261      C1262   1.423       .  A
C1262      C1266   1.508       .  S
C1263      C1268   1.411       .  A
C1263      C1272   1.400       .  A
C1264      H1280   1.110       .  S
C1264      H1281   1.110       .  S
C1264      H1282   1.111       .  S
C1266      H1277   1.111       .  S
C1266      H1278   1.110       .  S
C1266      H1279   1.110       .  S
C1268      C1273   1.508       .  S
C1268      C1269   1.401       .  A
C1269      C1270   1.405       .  A
C1269      H1274   1.084       .  S
C1270      C1271   1.419       .  A
C1271      C1275   1.507       .  S
C1271      C1272   1.405       .  A
C1272      H1276   1.084       .  S
C1273      H1283   1.111       .  S
C1273      H1284   1.109       .  S
C1273      H1285   1.110       .  S
C1275      H1286   1.109       .  S
C1275      H1287   1.111       .  S
C1275      H1288   1.111       .  S
C1289      C1290   1.399       .  A
C1289      C1294   1.404       .  A
C1289      H1299   1.084       .  S
C1290      C1295   1.478       .  S
C1290      C1291   1.406       .  A
C1291      C1296   1.507       .  S
C1291      C1292   1.403       .  A
C1292      C1293   1.410       .  A
C1292      H1297   1.083       .  S
C1293      C1294   1.421       .  A
C1294      C1298   1.507       .  S
C1295      C1300   1.407       .  A
C1295      C1304   1.399       .  A
C1296      H1312   1.110       .  S
C1296      H1313   1.110       .  S
C1296      H1314   1.111       .  S
C1298      H1309   1.111       .  S
C1298      H1310   1.110       .  S
C1298      H1311   1.110       .  S
C1300      C1305   1.507       .  S
C1300      C1301   1.402       .  A
C1301      C1302   1.409       .  A
C1301      H1306   1.083       .  S
C1302      C1303   1.422       .  A
C1303      C1307   1.508       .  S
C1303      C1304   1.405       .  A
C1304      H1308   1.084       .  S
C1305      H1315   1.111       .  S
C1305      H1316   1.110       .  S
C1305      H1317   1.110       .  S
C1307      H1318   1.111       .  S
C1307      H1319   1.109       .  S
C1307      H1320   1.110       .  S
C1321      C1322   1.400       .  A
C1321      C1326   1.407       .  A
C1321      H1331   1.084       .  S
C1322      C1327   1.481       .  S
C1322      C1323   1.407       .  A
C1323      C1328   1.508       .  S
C1323      C1324   1.401       .  A
C1324      C1325   1.410       .  A
C1324      H1329   1.083       .  S
C1325      C1326   1.421       .  A
C1326      C1330   1.507       .  S
C1327      C1332   1.407       .  A
C1327      C1336   1.399       .  A
C1328      H1344   1.110       .  S
C1328      H1345   1.110       .  S
C1328      H1346   1.111       .  S
C1330      H1341   1.111       .  S
C1330      H1342   1.110       .  S
C1330      H1343   1.110       .  S
C1332      C1337   1.506       .  S
C1332      C1333   1.403       .  A
C1333      C1334   1.409       .  A
C1333      H1338   1.083       .  S
C1334      C1335   1.423       .  A
C1335      C1339   1.508       .  S
C1335      C1336   1.404       .  A
C1336      H1340   1.085       .  S
C1337      H1347   1.111       .  S
C1337      H1348   1.110       .  S
C1337      H1349   1.110       .  S
C1339      H1350   1.111       .  S
C1339      H1351   1.110       .  S
C1339      H1352   1.110       .  S
C1353      C1354   1.400       .  A
C1353      C1358   1.408       .  A
C1353      H1363   1.084       .  S
C1354      C1359   1.481       .  S
C1354      C1355   1.410       .  A
C1355      C1360   1.508       .  S
C1355      C1356   1.402       .  A
C1356      C1357   1.406       .  A
C1356      H1361   1.084       .  S
C1357      C1358   1.421       .  A
C1358      C1362   1.507       .  S
C1359      C1364   1.409       .  A
C1359      C1368   1.400       .  A
C1360      H1376   1.110       .  S
C1360      H1377   1.110       .  S
C1360      H1378   1.111       .  S
C1362      H1373   1.111       .  S
C1362      H1374   1.111       .  S
C1362      H1375   1.110       .  S
C1364      C1369   1.507       .  S
C1364      C1365   1.403       .  A
C1365      C1366   1.406       .  A
C1365      H1370   1.084       .  S
C1366      C1367   1.420       .  A
C1367      C1371   1.508       .  S
C1367      C1368   1.405       .  A
C1368      H1372   1.084       .  S
C1369      H1379   1.111       .  S
C1369      H1380   1.110       .  S
C1369      H1381   1.110       .  S
C1371      H1382   1.111       .  S
C1371      H1383   1.109       .  S
C1371      H1384   1.111       .  S
C1385      C1386   1.400       .  A
C1385      C1390   1.405       .  A
C1385      H1395   1.084       .  S
C1386      C1391   1.477       .  S
C1386      C1387   1.407       .  A
C1387      C1392   1.507       .  S
C1387      C1388   1.400       .  A
C1388      C1389   1.407       .  A
C1388      H1393   1.084       .  S
C1389      C1390   1.421       .  A
C1390      C1394   1.508       .  S
C1391      C1396   1.410       .  A
C1391      C1400   1.397       .  A
C1392      H1408   1.110   1_545  S
C1392      H1409   1.110       .  S
C1392      H1410   1.111   1_545  S
C1394      H1405   1.109       .  S
C1394      H1406   1.111       .  S
C1394      H1407   1.110       .  S
C1396      C1401   1.506       .  S
C1396      C1397   1.405       .  A
C1397      C1398   1.405       .  A
C1397      H1402   1.084       .  S
C1398      C1399   1.420       .  A
C1399      C1403   1.509   1_545  S
C1399      C1400   1.401       .  A
C1400      H1404   1.084       .  S
C1401      H1411   1.111       .  S
C1401      H1412   1.110       .  S
C1401      H1413   1.110       .  S
C1403      H1414   1.109   1_565  S
C1403      H1415   1.111       .  S
C1403      H1416   1.111       .  S
C1417      C1418   1.399       .  A
C1417      C1422   1.402       .  A
C1417      H1427   1.085       .  S
C1418      C1423   1.479       .  S
C1418      C1419   1.407       .  A
C1419      C1424   1.506       .  S
C1419      C1420   1.405       .  A
C1420      C1421   1.409       .  A
C1420      H1425   1.084       .  S
C1421      C1422   1.421       .  A
C1422      C1426   1.508       .  S
C1423      C1428   1.407       .  A
C1423      C1432   1.399       .  A
C1424      H1440   1.110       .  S
C1424      H1441   1.110       .  S
C1424      H1442   1.111       .  S
C1426      H1437   1.111       .  S
C1426      H1438   1.109       .  S
C1426      H1439   1.110       .  S
C1428      C1433   1.506       .  S
C1428      C1429   1.402       .  A
C1429      C1430   1.409       .  A
C1429      H1434   1.084       .  S
C1430      C1431   1.422       .  A
C1431      C1435   1.508       .  S
C1431      C1432   1.405       .  A
C1432      H1436   1.084       .  S
C1433      H1443   1.111       .  S
C1433      H1444   1.110       .  S
C1433      H1445   1.110       .  S
C1435      H1446   1.111       .  S
C1435      H1447   1.110       .  S
C1435      H1448   1.110       .  S
C1449      C1450   1.400       .  A
C1449      C1454   1.406       .  A
C1449      H1459   1.084       .  S
C1450      C1455   1.482       .  S
C1450      C1451   1.408       .  A
C1451      C1456   1.507       .  S
C1451      C1452   1.402       .  A
C1452      C1453   1.410       .  A
C1452      H1457   1.084       .  S
C1453      C1454   1.422       .  A
C1454      C1458   1.507       .  S
C1455      C1460   1.408       .  A
C1455      C1464   1.400       .  A
C1456      H1472   1.110       .  S
C1456      H1473   1.110       .  S
C1456      H1474   1.111       .  S
C1458      H1469   1.111       .  S
C1458      H1470   1.110       .  S
C1458      H1471   1.110       .  S
C1460      C1465   1.506       .  S
C1460      C1461   1.404       .  A
C1461      C1462   1.409       .  A
C1461      H1466   1.083       .  S
C1462      C1463   1.421       .  A
C1463      C1467   1.508       .  S
C1463      C1464   1.404       .  A
C1464      H1468   1.084       .  S
C1465      H1475   1.111       .  S
C1465      H1476   1.110       .  S
C1465      H1477   1.110       .  S
C1467      H1478   1.111       .  S
C1467      H1479   1.110       .  S
C1467      H1480   1.110       .  S
C1481      C1482   1.399       .  A
C1481      C1486   1.406       .  A
C1481      H1491   1.084       .  S
C1482      C1487   1.480       .  S
C1482      C1483   1.409       .  A
C1483      C1488   1.508       .  S
C1483      C1484   1.402       .  A
C1484      C1485   1.409       .  A
C1484      H1489   1.084       .  S
C1485      C1486   1.422       .  A
C1486      C1490   1.507       .  S
C1487      C1492   1.408       .  A
C1487      C1496   1.398       .  A
C1488      H1504   1.110       .  S
C1488      H1505   1.110       .  S
C1488      H1506   1.111       .  S
C1490      H1501   1.111       .  S
C1490      H1502   1.110       .  S
C1490      H1503   1.110       .  S
C1492      C1497   1.507       .  S
C1492      C1493   1.404       .  A
C1493      C1494   1.409       .  A
C1493      H1498   1.083       .  S
C1494      C1495   1.424       .  A
C1495      C1499   1.508       .  S
C1495      C1496   1.405       .  A
C1496      H1500   1.084       .  S
C1497      H1507   1.111       .  S
C1497      H1508   1.110       .  S
C1497      H1509   1.110       .  S
C1499      H1510   1.111       .  S
C1499      H1511   1.110       .  S
C1499      H1512   1.110       .  S
C1513      C1514   1.398       .  A
C1513      C1518   1.405       .  A
C1513      H1523   1.084       .  S
C1514      C1519   1.477       .  S
C1514      C1515   1.409       .  A
C1515      C1520   1.508       .  S
C1515      C1516   1.402       .  A
C1516      C1517   1.407       .  A
C1516      H1521   1.084       .  S
C1517      C1518   1.421       .  A
C1518      C1522   1.507       .  S
C1519      C1524   1.407       .  A
C1519      C1528   1.399       .  A
C1520      H1536   1.110       .  S
C1520      H1537   1.110       .  S
C1520      H1538   1.111       .  S
C1522      H1533   1.111       .  S
C1522      H1534   1.110       .  S
C1522      H1535   1.110       .  S
C1524      C1529   1.507       .  S
C1524      C1525   1.401       .  A
C1525      C1526   1.408       .  A
C1525      H1530   1.084       .  S
C1526      C1527   1.422       .  A
C1527      C1531   1.508       .  S
C1527      C1528   1.404       .  A
C1528      H1532   1.084       .  S
C1529      H1539   1.111       .  S
C1529      H1540   1.110       .  S
C1529      H1541   1.110       .  S
C1531      H1542   1.111       .  S
C1531      H1543   1.110       .  S
C1531      H1544   1.109       .  S
C1545      C1546   1.398       .  A
C1545      C1550   1.405       .  A
C1545      H1555   1.084       .  S
C1546      C1551   1.480       .  S
C1546      C1547   1.409       .  A
C1547      C1552   1.507       .  S
C1547      C1548   1.404       .  A
C1548      C1549   1.408       .  A
C1548      H1553   1.084       .  S
C1549      C1550   1.424       .  A
C1550      C1554   1.508       .  S
C1551      C1556   1.410       .  A
C1551      C1560   1.397       .  A
C1552      H1568   1.110       .  S
C1552      H1569   1.110       .  S
C1552      H1570   1.111       .  S
C1554      H1565   1.110       .  S
C1554      H1566   1.111       .  S
C1554      H1567   1.110       .  S
C1556      C1561   1.506       .  S
C1556      C1557   1.405       .  A
C1557      C1558   1.406       .  A
C1557      H1562   1.084       .  S
C1558      C1559   1.423       .  A
C1559      C1563   1.510       .  S
C1559      C1560   1.402       .  A
C1560      H1564   1.084       .  S
C1561      H1571   1.111       .  S
C1561      H1572   1.110       .  S
C1561      H1573   1.110       .  S
C1563      H1574   1.109       .  S
C1563      H1575   1.110       .  S
C1563      H1576   1.111       .  S
C1577      C1578   1.399       .  A
C1577      C1582   1.406       .  A
C1577      H1587   1.084       .  S
C1578      C1583   1.483       .  S
C1578      C1579   1.409       .  A
C1579      C1584   1.507       .  S
C1579      C1580   1.404       .  A
C1580      C1581   1.409       .  A
C1580      H1585   1.084       .  S
C1581      C1582   1.423       .  A
C1582      C1586   1.507       .  S
C1583      C1588   1.409       .  A
C1583      C1592   1.399       .  A
C1584      H1600   1.110       .  S
C1584      H1601   1.110       .  S
C1584      H1602   1.111       .  S
C1586      H1597   1.111       .  S
C1586      H1598   1.110       .  S
C1586      H1599   1.110       .  S
C1588      C1593   1.506   1_545  S
C1588      C1589   1.405   1_545  A
C1589      C1590   1.407       .  A
C1589      H1594   1.084       .  S
C1590      C1591   1.423   1_565  A
C1591      C1595   1.509       .  S
C1591      C1592   1.405       .  A
C1592      H1596   1.084       .  S
C1593      H1603   1.111       .  S
C1593      H1604   1.110       .  S
C1593      H1605   1.110   1_565  S
C1595      H1606   1.111       .  S
C1595      H1607   1.110       .  S
C1595      H1608   1.110       .  S
C1609      C1610   1.399       .  A
C1609      C1614   1.403       .  A
C1609      H1619   1.085       .  S
C1610      C1615   1.481       .  S
C1610      C1611   1.411       .  A
C1611      C1616   1.506       .  S
C1611      C1612   1.406       .  A
C1612      C1613   1.404       .  A
C1612      H1617   1.084       .  S
C1613      C1614   1.419       .  A
C1614      C1618   1.509       .  S
C1615      C1620   1.411       .  A
C1615      C1624   1.404       .  A
C1616      H1632   1.110       .  S
C1616      H1633   1.110       .  S
C1616      H1634   1.111       .  S
C1618      H1629   1.111       .  S
C1618      H1630   1.107       .  S
C1618      H1631   1.109       .  S
C1620      C1625   1.506       .  S
C1620      C1621   1.401       .  A
C1621      C1622   1.402       .  A
C1621      H1626   1.085       .  S
C1622      C1623   1.412       .  A
C1623      C1627   1.507       .  S
C1623      C1624   1.405       .  A
C1624      H1628   1.084       .  S
C1625      H1635   1.111       .  S
C1625      H1636   1.110       .  S
C1625      H1637   1.109       .  S
C1627      H1638   1.110       .  S
C1627      H1639   1.109       .  S
C1627      H1640   1.110   1_455  S
C1641      C1642   1.400       .  A
C1641      C1646   1.401       .  A
C1641      H1651   1.084       .  S
C1642      C1647   1.481       .  S
C1642      C1643   1.410       .  A
C1643      C1648   1.505       .  S
C1643      C1644   1.405       .  A
C1644      C1645   1.406       .  A
C1644      H1649   1.084       .  S
C1645      C1646   1.418       .  A
C1646      C1650   1.509       .  S
C1647      C1652   1.411       .  A
C1647      C1656   1.400       .  A
C1648      H1664   1.110   1_554  S
C1648      H1665   1.110       .  S
C1648      H1666   1.111       .  S
C1650      H1661   1.111       .  S
C1650      H1662   1.108       .  S
C1650      H1663   1.110       .  S
C1652      C1657   1.508       .  S
C1652      C1653   1.403       .  A
C1653      C1654   1.407       .  A
C1653      H1658   1.082       .  S
C1654      C1655   1.419       .  A
C1655      C1659   1.506   1_554  S
C1655      C1656   1.404       .  A
C1656      H1660   1.084       .  S
C1657      H1667   1.110       .  S
C1657      H1668   1.109       .  S
C1657      H1669   1.110       .  S
C1659      H1670   1.110       .  S
C1659      H1671   1.108       .  S
C1659      H1672   1.111       .  S
C1673      C1674   1.397       .  A
C1673      C1678   1.408       .  A
C1673      H1683   1.084       .  S
C1674      C1679   1.493       .  S
C1674      C1675   1.409       .  A
C1675      C1680   1.509       .  S
C1675      C1676   1.404       .  A
C1676      C1677   1.417       .  A
C1676      H1681   1.079   1_545  S
C1677      C1678   1.434       .  A
C1678      C1682   1.504       .  S
C1679      C1684   1.417       .  A
C1679      C1688   1.403       .  A
C1680      H1696   1.107       .  S
C1680      H1697   1.110       .  S
C1680      H1698   1.111       .  S
C1682      H1693   1.111       .  S
C1682      H1694   1.109   1_545  S
C1682      H1695   1.105       .  S
C1684      C1689   1.510       .  S
C1684      C1685   1.404       .  A
C1685      C1686   1.406       .  A
C1685      H1690   1.081       .  S
C1686      C1687   1.418       .  A
C1687      C1691   1.507       .  S
C1687      C1688   1.403       .  A
C1688      H1692   1.082       .  S
C1689      H1699   1.111       .  S
C1689      H1700   1.108       .  S
C1689      H1701   1.110       .  S
C1691      H1702   1.110       .  S
C1691      H1703   1.108       .  S
C1691      H1704   1.111       .  S
C1705      C1706   1.402       .  A
C1705      C1710   1.407       .  A
C1705      H1715   1.084       .  S
C1706      C1711   1.485       .  S
C1706      C1707   1.412       .  A
C1707      C1712   1.507       .  S
C1707      C1708   1.403       .  A
C1708      C1709   1.402       .  A
C1708      H1713   1.084       .  S
C1709      C1710   1.417       .  A
C1710      C1714   1.506       .  S
C1711      C1716   1.405       .  A
C1711      C1720   1.397       .  A
C1712      H1728   1.109       .  S
C1712      H1729   1.110       .  S
C1712      H1730   1.111       .  S
C1714      H1725   1.110       .  S
C1714      H1726   1.110       .  S
C1714      H1727   1.107       .  S
C1716      C1721   1.506       .  S
C1716      C1717   1.405       .  A
C1717      C1718   1.417       .  A
C1717      H1722   1.082       .  S
C1718      C1719   1.429       .  A
C1719      C1723   1.504       .  S
C1719      C1720   1.409       .  A
C1720      H1724   1.084       .  S
C1721      H1731   1.111       .  S
C1721      H1732   1.110       .  S
C1721      H1733   1.110       .  S
C1723      H1734   1.109       .  S
C1723      H1735   1.100       .  S
C1723      H1736   1.111       .  S
C1737      C1738   1.395       .  A
C1737      C1742   1.404       .  A
C1737      H1747   1.085       .  S
C1738      C1743   1.486       .  S
C1738      C1739   1.409       .  A
C1739      C1744   1.507       .  S
C1739      C1740   1.409       .  A
C1740      C1741   1.412       .  A
C1740      H1745   1.082       .  S
C1741      C1742   1.434       .  A
C1742      C1746   1.511       .  S
C1743      C1748   1.413       .  A
C1743      C1752   1.400       .  A
C1744      H1760   1.111       .  S
C1744      H1761   1.107       .  S
C1744      H1762   1.111       .  S
C1746      H1757   1.108       .  S
C1746      H1758   1.111       .  S
C1746      H1759   1.107       .  S
C1748      C1753   1.506       .  S
C1748      C1749   1.411       .  A
C1749      C1750   1.405       .  A
C1749      H1754   1.084       .  S
C1750      C1751   1.417       .  A
C1751      C1755   1.508       .  S
C1751      C1752   1.399       .  A
C1752      H1756   1.085       .  S
C1753      H1763   1.111       .  S
C1753      H1764   1.110       .  S
C1753      H1765   1.107       .  S
C1755      H1766   1.110       .  S
C1755      H1767   1.104       .  S
C1755      H1768   1.110       .  S
C1769      C1770   1.401       .  A
C1769      C1774   1.402       .  A
C1769      H1779   1.085       .  S
C1770      C1775   1.484       .  S
C1770      C1771   1.411       .  A
C1771      C1776   1.506       .  S
C1771      C1772   1.406       .  A
C1772      C1773   1.406       .  A
C1772      H1777   1.084       .  S
C1773      C1774   1.419       .  A
C1774      C1778   1.507       .  S
C1775      C1780   1.413       .  A
C1775      C1784   1.401       .  A
C1776      H1792   1.109       .  S
C1776      H1793   1.110       .  S
C1776      H1794   1.111       .  S
C1778      H1789   1.111       .  S
C1778      H1790   1.110       .  S
C1778      H1791   1.102       .  S
C1780      C1785   1.508       .  S
C1780      C1781   1.403       .  A
C1781      C1782   1.405       .  A
C1781      H1786   1.083       .  S
C1782      C1783   1.417       .  A
C1783      C1787   1.507       .  S
C1783      C1784   1.403       .  A
C1784      H1788   1.084       .  S
C1785      H1795   1.112       .  S
C1785      H1796   1.109       .  S
C1785      H1797   1.110       .  S
C1787      H1798   1.110       .  S
C1787      H1799   1.108       .  S
C1787      H1800   1.111       .  S
C1801      C1802   1.402       .  A
C1801      C1806   1.407       .  A
C1801      H1811   1.084       .  S
C1802      C1807   1.483       .  S
C1802      C1803   1.406       .  A
C1803      C1808   1.508       .  S
C1803      C1804   1.401       .  A
C1804      C1805   1.412       .  A
C1804      H1809   1.078       .  S
C1805      C1806   1.422       .  A
C1806      C1810   1.507       .  S
C1807      C1812   1.410       .  A
C1807      C1816   1.405       .  A
C1808      H1824   1.110       .  S
C1808      H1825   1.111       .  S
C1808      H1826   1.111       .  S
C1810      H1821   1.110       .  S
C1810      H1822   1.111       .  S
C1810      H1823   1.108       .  S
C1812      C1817   1.508       .  S
C1812      C1813   1.399       .  A
C1813      C1814   1.403       .  A
C1813      H1818   1.081       .  S
C1814      C1815   1.412       .  A
C1815      C1819   1.506       .  S
C1815      C1816   1.410       .  A
C1816      H1820   1.084       .  S
C1817      H1827   1.111       .  S
C1817      H1828   1.110       .  S
C1817      H1829   1.111       .  S
C1819      H1830   1.111       .  S
C1819      H1831   1.110       .  S
C1819      H1832   1.109       .  S
C1833      C1834   1.402       .  A
C1833      C1838   1.403       .  A
C1833      H1843   1.084       .  S
C1834      C1839   1.489       .  S
C1834      C1835   1.411       .  A
C1835      C1840   1.506       .  S
C1835      C1836   1.406       .  A
C1836      C1837   1.407       .  A
C1836      H1841   1.084       .  S
C1837      C1838   1.419       .  A
C1838      C1842   1.509       .  S
C1839      C1844   1.413       .  A
C1839      C1848   1.405       .  A
C1840      H1856   1.109       .  S
C1840      H1857   1.111       .  S
C1840      H1858   1.111       .  S
C1842      H1853   1.111       .  S
C1842      H1854   1.107       .  S
C1842      H1855   1.111       .  S
C1844      C1849   1.507       .  S
C1844      C1845   1.397       .  A
C1845      C1846   1.399       .  A
C1845      H1850   1.077       .  S
C1846      C1847   1.415       .  A
C1847      C1851   1.506       .  S
C1847      C1848   1.409       .  A
C1848      H1852   1.084       .  S
C1849      H1859   1.111       .  S
C1849      H1860   1.108       .  S
C1849      H1861   1.109       .  S
C1851      H1862   1.110       .  S
C1851      H1863   1.109       .  S
C1851      H1864   1.110       .  S
C1865      C1866   1.400       .  A
C1865      C1870   1.405       .  A
C1865      H1875   1.084       .  S
C1866      C1871   1.482       .  S
C1866      C1867   1.409       .  A
C1867      C1872   1.506       .  S
C1867      C1868   1.403       .  A
C1868      C1869   1.405       .  A
C1868      H1873   1.083       .  S
C1869      C1870   1.420       .  A
C1870      C1874   1.507   1_655  S
C1871      C1876   1.408       .  A
C1871      C1880   1.398       .  A
C1872      H1888   1.110       .  S
C1872      H1889   1.110       .  S
C1872      H1890   1.107       .  S
C1874      H1885   1.110       .  S
C1874      H1886   1.110       .  S
C1874      H1887   1.108       .  S
C1876      C1881   1.505       .  S
C1876      C1877   1.406       .  A
C1877      C1878   1.408       .  A
C1877      H1882   1.084       .  S
C1878      C1879   1.422       .  A
C1879      C1883   1.508       .  S
C1879      C1880   1.403       .  A
C1880      H1884   1.085       .  S
C1881      H1891   1.111       .  S
C1881      H1892   1.110   1_655  S
C1881      H1893   1.110       .  S
C1883      H1894   1.107       .  S
C1883      H1895   1.107       .  S
C1883      H1896   1.111       .  S
C1897      C1898   1.399       .  A
C1897      C1902   1.405       .  A
C1897      H1907   1.084       .  S
C1898      C1903   1.481       .  S
C1898      C1899   1.411       .  A
C1899      C1904   1.508       .  S
C1899      C1900   1.402       .  A
C1900      C1901   1.406       .  A
C1900      H1905   1.083       .  S
C1901      C1902   1.418       .  A
C1902      C1906   1.503       .  S
C1903      C1908   1.406       .  A
C1903      C1912   1.396       .  A
C1904      H1920   1.110       .  S
C1904      H1921   1.110       .  S
C1904      H1922   1.111       .  S
C1906      H1917   1.110       .  S
C1906      H1918   1.110       .  S
C1906      H1919   1.106       .  S
C1908      C1913   1.505       .  S
C1908      C1909   1.407       .  A
C1909      C1910   1.412       .  A
C1909      H1914   1.084       .  S
C1910      C1911   1.421       .  A
C1911      C1915   1.501       .  S
C1911      C1912   1.402       .  A
C1912      H1916   1.084       .  S
C1913      H1923   1.111       .  S
C1913      H1924   1.110       .  S
C1913      H1925   1.110       .  S
C1915      H1926   1.106       .  S
C1915      H1927   1.102       .  S
C1915      H1928   1.110       .  S
C1929      C1930   1.400       .  A
C1929      C1934   1.404       .  A
C1929      H1939   1.084       .  S
C1930      C1935   1.483       .  S
C1930      C1931   1.412       .  A
C1931      C1936   1.507       .  S
C1931      C1932   1.402       .  A
C1932      C1933   1.405       .  A
C1932      H1937   1.084       .  S
C1933      C1934   1.418       .  A
C1934      C1938   1.505       .  S
C1935      C1940   1.409       .  A
C1935      C1944   1.399       .  A
C1936      H1952   1.109       .  S
C1936      H1953   1.111       .  S
C1936      H1954   1.111       .  S
C1938      H1949   1.111       .  S
C1938      H1950   1.106       .  S
C1938      H1951   1.110       .  S
C1940      C1945   1.506       .  S
C1940      C1941   1.405       .  A
C1941      C1942   1.408       .  A
C1941      H1946   1.084       .  S
C1942      C1943   1.420       .  A
C1943      C1947   1.502       .  S
C1943      C1944   1.405       .  A
C1944      H1948   1.085       .  S
C1945      H1955   1.111       .  S
C1945      H1956   1.110       .  S
C1945      H1957   1.110       .  S
C1947      H1958   1.106       .  S
C1947      H1959   1.106       .  S
C1947      H1960   1.110       .  S
C1961      C1962   1.400       .  A
C1961      C1966   1.405       .  A
C1961      H1971   1.084       .  S
C1962      C1967   1.487       .  S
C1962      C1963   1.409       .  A
C1963      C1968   1.505       .  S
C1963      C1964   1.407       .  A
C1964      C1965   1.409       .  A
C1964      H1969   1.084       .  S
C1965      C1966   1.423       .  A
C1966      C1970   1.508       .  S
C1967      C1972   1.413       .  A
C1967      C1976   1.402       .  A
C1968      H1984   1.110       .  S
C1968      H1985   1.110       .  S
C1968      H1986   1.111       .  S
C1970      H1981   1.111       .  S
C1970      H1982   1.107       .  S
C1970      H1983   1.110       .  S
C1972      C1977   1.507       .  S
C1972      C1973   1.403       .  A
C1973      C1974   1.405       .  A
C1973      H1978   1.083       .  S
C1974      C1975   1.418       .  A
C1975      C1979   1.507   1_565  S
C1975      C1976   1.407       .  A
C1976      H1980   1.084       .  S
C1977      H1987   1.111       .  S
C1977      H1988   1.109       .  S
C1977      H1989   1.110       .  S
C1979      H1990   1.110       .  S
C1979      H1991   1.108       .  S
C1979      H1992   1.110       .  S
