geometry optimzed in LAMMPS
_audit_creation_date              2020-11-30 
_audit_creation_method            'lammps2cif' 
_symmetry_space_group_name_H-M    'P1' 
_symmetry_Int_Tables_number       1 
_symmetry_cell_setting            triclinic 
loop_ 
_symmetry_equiv_pos_as_xyz 
  x,y,z 
_cell_length_a                    43.20263889 
_cell_length_b                    19.74381907461984 
_cell_length_c                    68.70316261476661 
_cell_angle_alpha                 89.90447892979356 
_cell_angle_beta                  90.22861762303417 
_cell_angle_gamma                 92.17155234462426 
loop_ 
_atom_site_label 
_atom_site_type_symbol 
_atom_site_fract_x 
_atom_site_fract_y 
_atom_site_fract_z 
_atom_site_charge 
O1          O  0.29566161  0.19726692  0.09245232    -0.72700
O2          O  0.29802137  0.05518667  0.05042970    -0.73700
O3          O  0.29798210  0.20147294  0.05075189    -0.62300
O4          O  0.29615572  0.05637189  0.09206728    -0.70700
O5          O  0.24472500  0.05180231  0.09089677    -0.70300
O6          O  0.24660117  0.19665519  0.04970555    -0.61500
O7          O  0.24663103  0.05108497  0.04949929    -0.74100
O8          O  0.24423704  0.19305572  0.09110977    -0.72800
Cu9        Cu  0.29878831  0.12778880  0.07123411     1.04600
Cu10       Cu  0.24382365  0.12300985  0.07004257     1.04300
C11         C  0.26948248  0.21364190  0.09924940     0.93500
C12         C  0.27252803  0.02920967  0.04380224     0.92600
C13         C  0.27251464  0.22322854  0.04409945     0.84800
C14         C  0.27009723  0.03495086  0.09885265     0.91000
C15         C  0.23258519  0.12803934  0.81948850     0.86700
C16         C  0.23634113  0.06652869  0.83301475    -0.53500
C17         C  0.26333814  0.06880711  0.84358065     0.09600
C18         C  0.28479169  0.12974713  0.83833579     0.20600
C19         C  0.23773453  0.18999280  0.83288367    -0.54300
C20         C  0.26470290  0.18948599  0.84345955     0.09700
C21         C  0.26081540  0.12883182  0.80618365    -0.53800
C22         C  0.28828786  0.12976573  0.81602776     0.10300
H23         H  0.21732693  0.03057601  0.83606287     0.14800
H24         H  0.30737495  0.13053270  0.84613907     0.00600
H25         H  0.21948544  0.22477893  0.83590443     0.15100
H26         H  0.25910135  0.12863718  0.79043008     0.14900
O27         O  0.29833918  0.45180680  0.02342779    -0.72700
O28         O  0.29807524  0.30753111  0.98205984    -0.73700
O29         O  0.29750375  0.44912394  0.98179732    -0.62300
O30         O  0.29847609  0.30550866  0.02370838    -0.70700
O31         O  0.24707163  0.30114320  0.02368954    -0.70300
O32         O  0.24604869  0.44387353  0.98222308    -0.61900
O33         O  0.24660996  0.30324777  0.98227784    -0.74100
O34         O  0.24693374  0.44669658  0.02359072    -0.72800
Cu35       Cu  0.29993026  0.37866407  0.00296027     1.04600
Cu36       Cu  0.24493316  0.37355862  0.00317229     1.04300
C37         C  0.27264220  0.47333638  0.02962444     0.93500
C38         C  0.27220972  0.28648460  0.97478379     0.92600
C39         C  0.27145777  0.46548049  0.97462789     0.84800
C40         C  0.27278477  0.27930404  0.02986754     0.91000
C41         C  0.28839510  0.37782816  0.25576864     0.86700
C42         C  0.28453210  0.31607154  0.24220842    -0.53500
C43         C  0.25895220  0.31700998  0.23035940     0.09600
C44         C  0.23849650  0.37718294  0.23449617     0.20600
C45         C  0.28646794  0.43939483  0.24209436    -0.54300
C46         C  0.26086236  0.43770604  0.23024473     0.09700
C47         C  0.25861321  0.37754463  0.26770296    -0.53800
C48         C  0.23234647  0.37705188  0.25666041     0.10300
H49         H  0.30288088  0.28065116  0.24021704     0.14800
H50         H  0.21709602  0.37688602  0.22552898     0.00600
H51         H  0.30599575  0.47481105  0.23990038     0.15100
H52         H  0.25802871  0.37739131  0.28347291     0.14900
O53         O  0.47694894  0.30028770  0.59278972    -0.72700
O54         O  0.47490060  0.44263530  0.55073024    -0.73700
O55         O  0.47534345  0.29658611  0.55123275    -0.62300
O56         O  0.47605358  0.44143632  0.59232660    -0.70700
O57         O  0.02751670  0.44509407  0.59202861    -0.70300
O58         O  0.02673951  0.30221156  0.55051719    -0.61500
O59         O  0.02630793  0.44770347  0.55054050    -0.74100
O60         O  0.02838850  0.30452412  0.59180535    -0.72800
Cu61       Cu  0.47399237  0.37002465  0.57156092     1.04600
Cu62       Cu  0.02898718  0.37512041  0.57097374     1.04300
C63         C  0.00309340  0.28367371  0.59971585     0.93500
C64         C  0.00045121  0.46914028  0.54446960     0.92600
C65         C  0.00092051  0.27522898  0.54480411     0.84800
C66         C  0.00198470  0.46201270  0.59959875     0.91000
O67         O  0.47474485  0.04694173  0.52376013    -0.72700
O68         O  0.47581777  0.19359815  0.48290685    -0.73700
O69         O  0.47577374  0.05263029  0.48204854    -0.62300
O70         O  0.47505988  0.19312525  0.52443468    -0.70700
O71         O  0.02647802  0.19738414  0.52465514    -0.70300
O72         O  0.02721500  0.05530938  0.48310998    -0.61500
O73         O  0.02727734  0.19628663  0.48328944    -0.74100
O74         O  0.02614409  0.05191529  0.52447518    -0.72800
Cu75       Cu  0.47351390  0.12133650  0.50350115     1.04600
Cu76       Cu  0.02851133  0.12531023  0.50412586     1.04300
C77         C  0.00034878  0.02523019  0.53022092     0.93500
C78         C  0.00177649  0.21429030  0.47578609     0.92600
C79         C  0.00173765  0.03576923  0.47505821     0.84800
C80         C  0.00076245  0.21920317  0.53068273     0.91000
C81         C  0.48230522  0.37391396  0.31913546     0.86700
C82         C  0.48485233  0.31429421  0.33351515    -0.53500
C83         C  0.01099119  0.31759767  0.34487711     0.09600
C84         C  0.03270285  0.37851010  0.33991065     0.20600
C85         C  0.48609787  0.43737341  0.33199367    -0.54300
C86         C  0.01181956  0.43835558  0.34371192     0.09700
C87         C  0.01186331  0.37332175  0.30695004    -0.53800
C88         C  0.03835921  0.37567744  0.31774873     0.10300
H89         H  0.46547533  0.27923821  0.33655461     0.14800
H90         H  0.05434426  0.38114045  0.34861352     0.00600
H91         H  0.46746747  0.47217600  0.33388579     0.15100
H92         H  0.01215329  0.37071716  0.29119903     0.14900
C93         C  0.03994938  0.12582908  0.75466058     0.86700
C94         C  0.03485998  0.06350737  0.74144008    -0.53500
C95         C  0.00785162  0.06342061  0.73091234     0.09600
C96         C  0.48748697  0.12273295  0.73610204     0.20600
C97         C  0.03581505  0.18684812  0.74095833    -0.54300
C98         C  0.00846614  0.18436951  0.73077523     0.09700
C99         C  0.01184961  0.12499144  0.76810708    -0.53800
C100        C  0.48426817  0.12348459  0.75839070     0.10300
H101        H  0.05320878  0.02893081  0.73846927     0.14800
H102        H  0.46476440  0.12071953  0.72850185     0.00600
H103        H  0.05472676  0.22255898  0.73744001     0.15100
H104        H  0.01371994  0.12624295  0.78385094     0.14900
C105        C  0.02289640  0.47183285  0.39323406     0.30000
C106        C  0.03897616  0.47034472  0.41099598    -0.36400
C107        C  0.02109057  0.47817654  0.42777669     0.16000
C108        C  0.98958892  0.98714310  0.42705029     0.21800
C109        C  0.97354993  0.98815075  0.40927882    -0.34500
C110        C  0.99141291  0.48053162  0.39260893     0.15900
O111        O  0.03471576  0.46216595  0.37584582    -0.26500
C112        C  0.01058899  0.46555101  0.36379945     0.05700
C113        C  0.98303792  0.47751234  0.37353975    -0.31400
O114        O  0.97803421  0.00128855  0.44422591    -0.23200
C115        C  0.00243785  0.00175948  0.45610487    -0.03200
C116        C  0.02980844  0.98693919  0.44664944    -0.17600
H117        H  0.06375019  0.46440433  0.41166874     0.20400
H118        H  0.44890412  0.99580288  0.40853475     0.18700
H119        H  0.45971914  0.47741350  0.36773863     0.18700
H120        H  0.05318839  0.48967872  0.45244866     0.14500
C121        C  0.01999753  0.27493089  0.42968576     0.30000
C122        C  0.03936031  0.28066755  0.41339188    -0.36400
C123        C  0.02440847  0.28369544  0.39530020     0.16000
C124        C  0.49261970  0.28238421  0.39335853     0.21800
C125        C  0.47323450  0.27807531  0.40967870    -0.34500
C126        C  0.98817157  0.27426592  0.42778817     0.15900
O127        O  0.02895162  0.26110208  0.44755205    -0.26500
C128        C  0.00258926  0.25157413  0.45729236     0.05700
C129        C  0.47644796  0.26038894  0.44578212    -0.31400
O130        O  0.48364812  0.28774147  0.37508437    -0.23200
C131        C  0.01004683  0.29238804  0.36513871    -0.03200
C132        C  0.03614126  0.28970042  0.37702215    -0.17600
H133        H  0.06432483  0.28016345  0.41467688     0.20400
H134        H  0.44825367  0.27595765  0.40831269     0.18700
H135        H  0.45244839  0.24957639  0.44952235     0.18700
H136        H  0.06025141  0.29579337  0.37293714     0.14500
C137        C  0.01913726  0.51549873  0.64656592     0.30000
C138        C  0.03749121  0.51622401  0.66341531    -0.36400
C139        C  0.02175378  0.02288134  0.68099517     0.16000
C140        C  0.49025348  0.03080415  0.68198419     0.21800
C141        C  0.47186198  0.03087759  0.66507509    -0.34500
C142        C  0.48749981  0.52229552  0.64747812     0.15900
O143        O  0.02861138  0.50058380  0.62896373    -0.26500
C144        C  0.00279669  0.49745169  0.61835874     0.05700
C145        C  0.47648085  0.51143029  0.62907826    -0.31400
O146        O  0.48074188  0.04022216  0.69996399    -0.23200
C147        C  0.00642574  0.03720042  0.71070466    -0.03200
C148        C  0.03261667  0.02596591  0.69955226    -0.17600
H149        H  0.06222241  0.50954786  0.66287948     0.20400
H150        H  0.44702423  0.03579217  0.66566658     0.18700
H151        H  0.45249963  0.50668043  0.62449674     0.18700
H152        H  0.05660721  0.02621661  0.70413803     0.14500
C153        C  0.02110497  0.22351955  0.68198164     0.30000
C154        C  0.03866551  0.22793914  0.66489934    -0.36400
C155        C  0.02179856  0.22945250  0.64745398     0.16000
C156        C  0.48984047  0.22698586  0.64684319     0.21800
C157        C  0.47228732  0.22136413  0.66392726    -0.34500
C158        C  0.48918033  0.22030648  0.68137185     0.15900
O159        O  0.03209961  0.21841982  0.69980568    -0.26500
C160        C  0.00689683  0.21190334  0.71082728     0.05700
C161        C  0.47952217  0.21351590  0.70009100    -0.31400
O162        O  0.47891620  0.23851177  0.62926287    -0.23200
C163        C  0.00417488  0.24814523  0.61844306    -0.03200
C164        C  0.03151524  0.24179009  0.62896084    -0.17600
H165        H  0.06372455  0.23118794  0.66520831     0.20400
H166        H  0.44722378  0.21998602  0.66367210     0.18700
H167        H  0.45597433  0.20545363  0.70513478     0.18700
H168        H  0.05499856  0.25320688  0.62420456     0.14500
C169        C  0.10318426  0.37349587  0.28680863     0.30000
C170        C  0.11882053  0.37411256  0.26890757    -0.36400
C171        C  0.15128425  0.37394812  0.26992827     0.16000
C172        C  0.16719646  0.37297847  0.28735804     0.21800
C173        C  0.15156380  0.37202441  0.30524206    -0.34500
C174        C  0.11913445  0.37248597  0.30422232     0.15900
O175        O  0.07294915  0.37460388  0.28927026    -0.26500
C176        C  0.06936741  0.37445077  0.30853451     0.05700
C177        C  0.09743410  0.37300753  0.31856531    -0.31400
O178        O  0.19745938  0.37387081  0.28495645    -0.23200
C179        C  0.20117083  0.37546762  0.26571341    -0.03200
C180        C  0.17311602  0.37550501  0.25561821    -0.17600
H181        H  0.10654057  0.37523526  0.25515440     0.20400
H182        H  0.16385567  0.37156978  0.31899863     0.18700
H183        H  0.10152296  0.37256265  0.33410177     0.18700
H184        H  0.16915709  0.37687171  0.24007334     0.14500
C185        C  0.36664493  0.37685091  0.27118810     0.30000
C186        C  0.39882042  0.37634399  0.26855878    -0.36400
C187        C  0.41672560  0.37405775  0.28558998     0.16000
C188        C  0.40387893  0.37258678  0.30392591     0.21800
C189        C  0.37168304  0.37311270  0.30655813    -0.34500
C190        C  0.35375778  0.37530963  0.28951505     0.15900
O191        O  0.34561400  0.37835447  0.25728972    -0.26500
C192        C  0.31875175  0.37780936  0.26675187     0.05700
C193        C  0.32248755  0.37603007  0.28692525    -0.31400
O194        O  0.42497839  0.37151379  0.31780627    -0.23200
C195        C  0.45180657  0.37214377  0.30829390    -0.03200
C196        C  0.44797632  0.37361818  0.28812999    -0.17600
H197        H  0.40915990  0.37762689  0.25423459     0.20400
H198        H  0.36135092  0.37201897  0.32088480     0.18700
H199        H  0.30502356  0.37484182  0.29815207     0.18700
H200        H  0.46536185  0.37532772  0.27685882     0.14500
C201        C  0.16835748  0.12725384  0.78711323     0.30000
C202        C  0.15307875  0.12794682  0.76905415    -0.36400
C203        C  0.12062204  0.12773618  0.76971944     0.16000
C204        C  0.10428412  0.12682568  0.78694526     0.21800
C205        C  0.11955672  0.12605246  0.80500004    -0.34500
C206        C  0.15200495  0.12633253  0.80433415     0.15900
O207        O  0.19859441  0.12772297  0.78992146    -0.26500
C208        C  0.20167773  0.12714530  0.80921166     0.05700
C209        C  0.17341528  0.12619476  0.81889818    -0.31400
O210        O  0.07405413  0.12649989  0.78415284    -0.23200
C211        C  0.07093142  0.12720045  0.76486634    -0.03200
C212        C  0.09918320  0.12803792  0.75516162    -0.17600
H213        H  0.16561499  0.12868111  0.75544175     0.20400
H214        H  0.10702111  0.12533048  0.81861254     0.18700
H215        H  0.16938849  0.12576552  0.83443964     0.18700
H216        H  0.10318746  0.12837430  0.73961861     0.14500
C217        C  0.36698546  0.13007223  0.80318351     0.30000
C218        C  0.39901078  0.12878168  0.80655317    -0.36400
C219        C  0.41770830  0.12768115  0.78992773     0.16000
C220        C  0.40574489  0.12802361  0.77128574     0.21800
C221        C  0.37373405  0.12959091  0.76791311    -0.34500
C222        C  0.35503588  0.13049701  0.78453826     0.15900
O223        O  0.34523789  0.13012463  0.81658287    -0.26500
C224        C  0.31893753  0.13053315  0.80643104     0.05700
C225        C  0.32369703  0.13091917  0.78637216    -0.31400
O226        O  0.42743595  0.12634341  0.75788772    -0.23200
C227        C  0.45371564  0.12486287  0.76803244    -0.03200
C228        C  0.44901511  0.12565788  0.78808793    -0.17600
H229        H  0.40865512  0.12819595  0.82111535     0.20400
H230        H  0.36407858  0.12964194  0.75335067     0.18700
H231        H  0.30670825  0.13096545  0.77476508     0.18700
H232        H  0.46601397  0.12481431  0.79967941     0.14500
C233        C  0.25470324  0.23232679  0.92799668     0.30000
C234        C  0.23596239  0.23125964  0.91131876    -0.36400
C235        C  0.25142242  0.22685228  0.89354223     0.16000
C236        C  0.28305973  0.22173135  0.89221110     0.21800
C237        C  0.30186952  0.22207162  0.90893432    -0.34500
C238        C  0.28644292  0.22795139  0.92676585     0.15900
O239        O  0.24542436  0.24594427  0.94572524    -0.26500
C240        C  0.27146102  0.25070534  0.95608683     0.05700
C241        C  0.29774163  0.23885632  0.94509482    -0.31400
O242        O  0.29229809  0.21412339  0.87410326    -0.23200
C243        C  0.26628071  0.21559445  0.86363972    -0.03200
C244        C  0.24015209  0.22394137  0.87508302    -0.17600
H245        H  0.21112857  0.23607951  0.91211381     0.20400
H246        H  0.32679683  0.21937771  0.90807682     0.18700
H247        H  0.32177333  0.24548407  0.94943898     0.18700
H248        H  0.21604542  0.22158291  0.87071206     0.14500
C249        C  0.28130165  0.03779952  0.89230893     0.30000
C250        C  0.30010823  0.04024801  0.90901286    -0.36400
C251        C  0.28476581  0.52997596  0.92682374     0.16000
C252        C  0.25310129  0.51889978  0.92805380     0.21800
C253        C  0.23434057  0.01734988  0.91135566    -0.34500
C254        C  0.24971949  0.02628858  0.89358226     0.15900
O255        O  0.29055858  0.04813558  0.87426441    -0.26500
C256        C  0.26463964  0.04229033  0.86373269     0.05700
C257        C  0.23849788  0.02815960  0.87508607    -0.31400
O258        O  0.24407831  0.50194281  0.94573041    -0.23200
C259        C  0.27023034  0.50183369  0.95601599    -0.03200
C260        C  0.29628000  0.52004061  0.94505647    -0.17600
H261        H  0.32499447  0.04805586  0.90815860     0.20400
H262        H  0.20953038  0.50742777  0.91214681     0.18700
H263        H  0.21441886  0.02578987  0.87066011     0.18700
H264        H  0.32037837  0.51822800  0.94932876     0.14500
C265        C  0.28086680  0.26380775  0.14717743     0.30000
C266        C  0.29665258  0.26257582  0.16500990    -0.36400
C267        C  0.27863165  0.27139304  0.18163451     0.16000
C268        C  0.24735841  0.28247210  0.18083958     0.21800
C269        C  0.23148876  0.28387709  0.16296289    -0.34500
C270        C  0.24945522  0.27385063  0.14628941     0.15900
O271        O  0.29257014  0.24854725  0.13014437    -0.26500
C272        C  0.26841010  0.24840152  0.11809693     0.05700
C273        C  0.24099525  0.26471180  0.12731446    -0.31400
O274        O  0.23565042  0.29420344  0.19816782    -0.23200
C275        C  0.25965951  0.28950671  0.21028946    -0.03200
C276        C  0.28694449  0.27469027  0.20068769    -0.17600
H277        H  0.32117449  0.25357337  0.16589312     0.20400
H278        H  0.20684836  0.29149000  0.16212854     0.18700
H279        H  0.21775075  0.26279997  0.12135135     0.18700
H280        H  0.31018702  0.27306106  0.20654270     0.14500
C281        C  0.28277257  0.98229422  0.14632702     0.30000
C282        C  0.29929093  0.48409037  0.16395346    -0.36400
C283        C  0.28155504  0.47705487  0.18093369     0.16000
C284        C  0.24980598  0.46733353  0.18062795     0.21800
C285        C  0.23325009  0.46458123  0.16303476    -0.34500
C286        C  0.25097544  0.97256055  0.14602885     0.15900
O287        O  0.29410704  0.99806467  0.12905080    -0.26500
C288        C  0.26929186  0.99850137  0.11750804     0.05700
C289        C  0.24187748  0.98167554  0.12725788    -0.31400
O290        O  0.23807423  0.45861173  0.19816504    -0.23200
C291        C  0.26254221  0.46357387  0.20999415    -0.03200
C292        C  0.29024871  0.47563601  0.19997124    -0.17600
H293        H  0.32416140  0.49288275  0.16441178     0.20400
H294        H  0.20827049  0.45809178  0.16263667     0.18700
H295        H  0.21838922  0.98436371  0.12184521     0.18700
H296        H  0.31367069  0.47683362  0.20562751     0.14500
O297        O  0.29565690  0.69742223  0.09241675    -0.72700
O298        O  0.29795054  0.55516628  0.05045256    -0.73700
O299        O  0.29798538  0.70142831  0.05072692    -0.62300
O300        O  0.29608779  0.55650896  0.09208754    -0.70700
O301        O  0.24465678  0.55201877  0.09091813    -0.70300
O302        O  0.24660336  0.69670117  0.04967919    -0.61500
O303        O  0.24655951  0.55114012  0.04951981    -0.74100
O304        O  0.24423165  0.69328314  0.09107465    -0.72800
Cu305      Cu  0.29875315  0.62783543  0.07123080     1.04600
Cu306      Cu  0.24378702  0.62314592  0.07003841     1.04300
C307        C  0.26948384  0.71389042  0.09920101     0.93500
C308        C  0.27244985  0.52922193  0.04382744     0.92600
C309        C  0.27252765  0.72321147  0.04406971     0.84800
C310        C  0.27002337  0.53515010  0.09887814     0.91000
C311        C  0.23256749  0.62795901  0.81948095     0.86700
C312        C  0.23631677  0.56650290  0.83302768    -0.53500
C313        C  0.26331435  0.56880786  0.84359332     0.09600
C314        C  0.28477473  0.62971645  0.83832780     0.20600
C315        C  0.23772484  0.68996791  0.83285317    -0.54300
C316        C  0.26469172  0.68949036  0.84342956     0.09700
C317        C  0.26079657  0.62867879  0.80617557    -0.53800
C318        C  0.28827056  0.62964465  0.81601899     0.10300
H319        H  0.21729984  0.53057080  0.83608561     0.14800
H320        H  0.30735810  0.63052201  0.84613181     0.00600
H321        H  0.21948088  0.72478042  0.83586108     0.15100
H322        H  0.25908081  0.62843028  0.79042214     0.14900
O323        O  0.29842038  0.95176018  0.02340045    -0.72700
O324        O  0.29810053  0.80744998  0.98202491    -0.73700
O325        O  0.29757416  0.94905380  0.98176538    -0.62300
O326        O  0.29851769  0.80543193  0.02367459    -0.70700
O327        O  0.24711273  0.80114127  0.02365851    -0.70300
O328        O  0.24611870  0.94386124  0.98220129    -0.61900
O329        O  0.24663558  0.80324014  0.98225069    -0.74100
O330        O  0.24701564  0.94668865  0.02356358    -0.72800
Cu331      Cu  0.29998745  0.87859123  0.00292813     1.04600
Cu332      Cu  0.24499043  0.87355279  0.00314575     1.04300
C333        C  0.27272645  0.97331766  0.02959664     0.93500
C334        C  0.27222576  0.78644255  0.97475162     0.92600
C335        C  0.27152815  0.96544141  0.97460239     0.84800
C336        C  0.27281893  0.77926614  0.02983431     0.91000
C337        C  0.28848912  0.87782079  0.25572237     0.86700
C338        C  0.28465375  0.81611841  0.24214021    -0.53500
C339        C  0.25906700  0.81704468  0.23029718     0.09600
C340        C  0.23858375  0.87715030  0.23445507     0.20600
C341        C  0.28652738  0.93944110  0.24207057    -0.54300
C342        C  0.26092086  0.93774097  0.23022130     0.09700
C343        C  0.25870614  0.87740907  0.26765920    -0.53800
C344        C  0.23243647  0.87690163  0.25661855     0.10300
H345        H  0.30302134  0.78075314  0.24013087     0.14800
H346        H  0.21718106  0.87684044  0.22548975     0.00600
H347        H  0.30604066  0.97490416  0.23988465     0.15100
H348        H  0.25812326  0.87718202  0.28342891     0.14900
O349        O  0.47697522  0.80027245  0.59274173    -0.72700
O350        O  0.47486199  0.94265011  0.55068548    -0.73700
O351        O  0.47532272  0.79657830  0.55118729    -0.62300
O352        O  0.47606954  0.94142735  0.59228878    -0.70700
O353        O  0.02753195  0.94507837  0.59197080    -0.70300
O354        O  0.02671830  0.80221278  0.55045827    -0.61500
O355        O  0.02626822  0.94770795  0.55047940    -0.74100
O356        O  0.02841395  0.80451811  0.59174255    -0.72800
Cu357      Cu  0.47398764  0.87002129  0.57151738     1.04600
Cu358      Cu  0.02898130  0.87511990  0.57091187     1.04300
C359        C  0.00312551  0.78365528  0.59965874     0.93500
C360        C  0.00040778  0.96915741  0.54441723     0.92600
C361        C  0.00089700  0.77521349  0.54475616     0.84800
C362        C  0.00200864  0.96198573  0.59955455     0.91000
O363        O  0.47477765  0.54683032  0.52380387    -0.72700
O364        O  0.47574860  0.69321834  0.48289268    -0.73700
O365        O  0.47577677  0.55225643  0.48209938    -0.62300
O366        O  0.47503839  0.69299756  0.52441959    -0.70700
O367        O  0.02645676  0.69733101  0.52462498    -0.70300
O368        O  0.02721954  0.55505364  0.48314357    -0.61500
O369        O  0.02720938  0.69603474  0.48325972    -0.74100
O370        O  0.02617803  0.55186579  0.52450829    -0.72800
Cu371      Cu  0.47350181  0.62108724  0.50351827     1.04600
Cu372      Cu  0.02850060  0.62516461  0.50412692     1.04300
C373        C  0.00038979  0.52517503  0.53026543     0.93500
C374        C  0.00169077  0.71393481  0.47575610     0.92600
C375        C  0.00174329  0.53540717  0.47511008     0.84800
C376        C  0.00073884  0.71914074  0.53065076     0.91000
C377        C  0.48240620  0.87389955  0.31909720     0.86700
C378        C  0.48492215  0.81428960  0.33348368    -0.53500
C379        C  0.01105592  0.81755145  0.34485109     0.09600
C380        C  0.03279926  0.87841264  0.33987984     0.20600
C381        C  0.48622584  0.93737006  0.33194813    -0.54300
C382        C  0.01194488  0.93831607  0.34366949     0.09700
C383        C  0.01196567  0.87322548  0.30691622    -0.53800
C384        C  0.03845934  0.87553822  0.31771763     0.10300
H385        H  0.46553327  0.77925950  0.33651737     0.14800
H386        H  0.05444116  0.88102101  0.34858162     0.00600
H387        H  0.46761709  0.97223489  0.33382479     0.15100
H388        H  0.01225704  0.87059750  0.29116586     0.14900
C389        C  0.03994310  0.62596812  0.75465179     0.86700
C390        C  0.03483529  0.56355693  0.74146844    -0.53500
C391        C  0.00783175  0.56344253  0.73093669     0.09600
C392        C  0.48748759  0.62282922  0.73608611     0.20600
C393        C  0.03583759  0.68689599  0.74091189    -0.54300
C394        C  0.00849205  0.68439275  0.73072556     0.09700
C395        C  0.01183971  0.62527541  0.76809339    -0.53800
C396        C  0.48426100  0.62373297  0.75837335     0.10300
H397        H  0.05317407  0.52893642  0.73851462     0.14800
H398        H  0.46476734  0.62079570  0.72848262     0.00600
H399        H  0.05476252  0.72255032  0.73737692     0.15100
H400        H  0.01370618  0.62661126  0.78383709     0.14900
C401        C  0.02299566  0.97196549  0.39318898     0.30000
C402        C  0.03902622  0.97038649  0.41096836    -0.36400
C403        C  0.02111890  0.97848215  0.42772847     0.16000
C404        C  0.98953486  0.48650790  0.42713429     0.21800
C405        C  0.97344412  0.48739255  0.40937940    -0.34500
C406        C  0.99154060  0.98101873  0.39252968     0.15900
O407        O  0.03482652  0.96204906  0.37581603    -0.26500
C408        C  0.01073660  0.96562560  0.36374621     0.05700
C409        C  0.98320101  0.97797477  0.37345548    -0.31400
O410        O  0.97800030  0.50055795  0.44432244    -0.23200
C411        C  0.00244278  0.50129436  0.45617240    -0.03200
C412        C  0.02981901  0.48672600  0.44668671    -0.17600
H413        H  0.06377849  0.96415300  0.41166925     0.20400
H414        H  0.44877691  0.49479743  0.40866286     0.18700
H415        H  0.45989744  0.97811117  0.36763550     0.18700
H416        H  0.05316069  0.98961215  0.45244245     0.14500
C417        C  0.01989453  0.77467806  0.42966197     0.30000
C418        C  0.03929756  0.78070884  0.41339401    -0.36400
C419        C  0.02439292  0.78358533  0.39528430     0.16000
C420        C  0.49260767  0.78185452  0.39330076     0.21800
C421        C  0.47317658  0.77721734  0.40959547    -0.34500
C422        C  0.98806947  0.77357573  0.42772368     0.15900
O423        O  0.02883477  0.76099885  0.44754106    -0.26500
C424        C  0.00246341  0.75113870  0.45724975     0.05700
C425        C  0.47632660  0.75957038  0.44570503    -0.31400
O426        O  0.48368120  0.78719797  0.37501676    -0.23200
C427        C  0.01010717  0.79226251  0.36510743    -0.03200
C428        C  0.03617355  0.78983614  0.37702480    -0.17600
H429        H  0.06426489  0.78056483  0.41471121     0.20400
H430        H  0.44820066  0.77477498  0.40819779     0.18700
H431        H  0.45233970  0.74845959  0.44941878     0.18700
H432        H  0.06028784  0.79625140  0.37297768     0.14500
C433        C  0.01917428  0.01528987  0.64653974     0.30000
C434        C  0.03750459  0.01587357  0.66339906    -0.36400
C435        C  0.02174526  0.52303380  0.68102076     0.16000
C436        C  0.49022491  0.53064821  0.68202750     0.21800
C437        C  0.47181016  0.53059287  0.66512884    -0.34500
C438        C  0.48755419  0.02238134  0.64743337     0.15900
O439        O  0.02864455  0.00028439  0.62894338    -0.26500
C440        C  0.00284442  0.99738131  0.61832243     0.05700
C441        C  0.47654242  0.01159332  0.62902690    -0.31400
O442        O  0.48071496  0.53994531  0.70001268    -0.23200
C443        C  0.00642157  0.53715204  0.71073899    -0.03200
C444        C  0.03262605  0.52619042  0.69957249    -0.17600
H445        H  0.06221833  0.00895896  0.66287742     0.20400
H446        H  0.44695900  0.53526530  0.66573427     0.18700
H447        H  0.45256322  0.00707495  0.62442944     0.18700
H448        H  0.05662572  0.52669570  0.70414688     0.14500
C449        C  0.02114802  0.72337853  0.68191736     0.30000
C450        C  0.03871034  0.72780996  0.66483514    -0.36400
C451        C  0.02184432  0.72934529  0.64738899     0.16000
C452        C  0.48988590  0.72687555  0.64677826     0.21800
C453        C  0.47233229  0.72123553  0.66386124    -0.34500
C454        C  0.48922337  0.72016667  0.68130582     0.15900
O455        O  0.03213891  0.71830915  0.69974379    -0.26500
C456        C  0.00693262  0.71181898  0.71076409     0.05700
C457        C  0.47956120  0.71340862  0.70002467    -0.31400
O458        O  0.47896052  0.73843547  0.62920061    -0.23200
C459        C  0.00421731  0.74809851  0.61838139    -0.03200
C460        C  0.03155949  0.74172787  0.62889693    -0.17600
H461        H  0.06376982  0.73107049  0.66514506     0.20400
H462        H  0.44726802  0.71987036  0.66360565     0.18700
H463        H  0.45601072  0.70538279  0.70506821     0.18700
H464        H  0.05504154  0.75316315  0.62414149     0.14500
C465        C  0.10327808  0.87330054  0.28677323     0.30000
C466        C  0.11891137  0.87396292  0.26887090    -0.36400
C467        C  0.15137332  0.87369540  0.26988841     0.16000
C468        C  0.16728614  0.87258514  0.28731653     0.21800
C469        C  0.15165600  0.87157695  0.30520154    -0.34500
C470        C  0.11922860  0.87214731  0.30418534     0.15900
O471        O  0.07304621  0.87449950  0.28923800    -0.26500
C472        C  0.06946611  0.87426036  0.30850254     0.05700
C473        C  0.09753112  0.87267357  0.31853080    -0.31400
O474        O  0.19754852  0.87346463  0.28491346    -0.23200
C475        C  0.20125975  0.87519860  0.26567137    -0.03200
C476        C  0.17320451  0.87532435  0.25557769    -0.17600
H477        H  0.10663053  0.87521111  0.25511894     0.20400
H478        H  0.16394966  0.87102542  0.31895694     0.18700
H479        H  0.10161940  0.87213423  0.33406699     0.18700
H480        H  0.16924544  0.87683602  0.24003412     0.14500
C481        C  0.36674838  0.87696281  0.27113938     0.30000
C482        C  0.39892729  0.87653265  0.26851146    -0.36400
C483        C  0.41683204  0.87419005  0.28554308     0.16000
C484        C  0.40398137  0.87260779  0.30387768     0.21800
C485        C  0.37178355  0.87305815  0.30650815    -0.34500
C486        C  0.35385932  0.87530126  0.28946539     0.15900
O487        O  0.34571545  0.87848226  0.25724133    -0.26500
C488        C  0.31885057  0.87782546  0.26670346     0.05700
C489        C  0.32258739  0.87595612  0.28687591    -0.31400
O490        O  0.42507763  0.87148652  0.31775960    -0.23200
C491        C  0.45190953  0.87218246  0.30825053    -0.03200
C492        C  0.44808416  0.87376438  0.28808629    -0.17600
H493        H  0.40926954  0.87790086  0.25418776     0.20400
H494        H  0.36144876  0.87186539  0.32083350     0.18700
H495        H  0.30512305  0.87466622  0.29810237     0.18700
H496        H  0.46547351  0.87554979  0.27681822     0.14500
C497        C  0.16833729  0.62715359  0.78711062     0.30000
C498        C  0.15305973  0.62781029  0.76905163    -0.36400
C499        C  0.12060639  0.62773734  0.76971667     0.16000
C500        C  0.10426911  0.62699075  0.78694218     0.21800
C501        C  0.11954077  0.62625298  0.80499783    -0.34500
C502        C  0.15198712  0.62638901  0.80433202     0.15900
O503        O  0.19857256  0.62753397  0.78991739    -0.26500
C504        C  0.20165846  0.62705254  0.80920718     0.05700
C505        C  0.17339852  0.62624645  0.81889541    -0.31400
O506        O  0.07404083  0.62675450  0.78414796    -0.23200
C507        C  0.07092092  0.62734503  0.76486077    -0.03200
C508        C  0.09917129  0.62802761  0.75515768    -0.17600
H509        H  0.16559432  0.62841745  0.75543958     0.20400
H510        H  0.10700635  0.62565611  0.81861034     0.18700
H511        H  0.16937463  0.62593244  0.83443748     0.18700
H512        H  0.10317665  0.62823865  0.73961446     0.14500
C513        C  0.36696955  0.63003715  0.80316744     0.30000
C514        C  0.39899739  0.62882571  0.80653438    -0.36400
C515        C  0.41769423  0.62779797  0.78990769     0.16000
C516        C  0.40572915  0.62812738  0.77126608     0.21800
C517        C  0.37371445  0.62960799  0.76789588    -0.34500
C518        C  0.35501661  0.63044696  0.78452291     0.15900
O519        O  0.34522376  0.63004892  0.81656894    -0.26500
C520        C  0.31892001  0.63041460  0.80641964     0.05700
C521        C  0.32367647  0.63081095  0.78636002    -0.31400
O522        O  0.42742267  0.62651645  0.75786715    -0.23200
C523        C  0.45370484  0.62509789  0.76801190    -0.03200
C524        C  0.44900294  0.62586242  0.78806713    -0.17600
H525        H  0.40864517  0.62825527  0.82109600     0.20400
H526        H  0.36405619  0.62965224  0.75333408     0.18700
H527        H  0.30668529  0.63084751  0.77475438     0.18700
H528        H  0.46600184  0.62503434  0.79965861     0.14500
C529        C  0.25468850  0.73238614  0.92795796     0.30000
C530        C  0.23594813  0.73138007  0.91127898    -0.36400
C531        C  0.25140827  0.72697861  0.89350161     0.16000
C532        C  0.28304375  0.72181501  0.89217168     0.21800
C533        C  0.30185075  0.72209448  0.90889458    -0.34500
C534        C  0.28642556  0.72795826  0.92672611     0.15900
O535        O  0.24541673  0.74598445  0.94568984    -0.26500
C536        C  0.27145628  0.75067891  0.95605131     0.05700
C537        C  0.29772939  0.73880068  0.94505613    -0.31400
O538        O  0.29228283  0.71418779  0.87406561    -0.23200
C539        C  0.26626914  0.71567732  0.86360042    -0.03200
C540        C  0.24014047  0.72407244  0.87504119    -0.17600
H541        H  0.21111521  0.73622926  0.91207430     0.20400
H542        H  0.32677667  0.71935440  0.90803714     0.18700
H543        H  0.32176300  0.74537864  0.94939957     0.18700
H544        H  0.21603413  0.72172125  0.87066932     0.14500
C545        C  0.28126830  0.53783042  0.89232985     0.30000
C546        C  0.30007113  0.54024378  0.90903629    -0.36400
C547        C  0.28481068  0.02996555  0.92680132     0.16000
C548        C  0.25314862  0.01884964  0.92803439     0.21800
C549        C  0.23429838  0.51743006  0.91137284    -0.34500
C550        C  0.24968372  0.52635770  0.89360106     0.15900
O551        O  0.29053070  0.54815878  0.87428509    -0.26500
C552        C  0.26461166  0.54234112  0.86375193     0.05700
C553        C  0.23846608  0.52824386  0.87510452    -0.31400
O554        O  0.24413606  0.00187980  0.94571138    -0.23200
C555        C  0.27029223  0.00179854  0.95599315    -0.03200
C556        C  0.29633458  0.02003850  0.94503181    -0.17600
H557        H  0.32495882  0.54801901  0.90818480     0.20400
H558        H  0.20957471  0.00731519  0.91213267     0.18700
H559        H  0.21438764  0.52589289  0.87067723     0.18700
H560        H  0.32043550  0.01825117  0.94930086     0.14500
C561        C  0.28092402  0.76436217  0.14708763     0.30000
C562        C  0.29674633  0.76320936  0.16490710    -0.36400
C563        C  0.27873731  0.77182842  0.18154578     0.16000
C564        C  0.24744055  0.78266474  0.18077649     0.21800
C565        C  0.23153570  0.78401191  0.16291265    -0.34500
C566        C  0.24949118  0.77417498  0.14622487     0.15900
O567        O  0.29261269  0.74914146  0.13004833    -0.26500
C568        C  0.26842236  0.74879141  0.11802381     0.05700
C569        C  0.24100301  0.76494913  0.12725977    -0.31400
O570        O  0.23573999  0.79421432  0.19811695    -0.23200
C571        C  0.25977947  0.78963701  0.21021927    -0.03200
C572        C  0.28707650  0.77508805  0.20059377    -0.17600
H573        H  0.32128478  0.75436982  0.16577106     0.20400
H574        H  0.20687600  0.79141478  0.16209845     0.18700
H575        H  0.21774307  0.76281782  0.12132055     0.18700
H576        H  0.31033346  0.77361086  0.20643333     0.14500
C577        C  0.28269841  0.48244881  0.14635163     0.30000
C578        C  0.29936043  0.98399773  0.16393057    -0.36400
C579        C  0.28161950  0.97704829  0.18091131     0.16000
C580        C  0.24986949  0.96735069  0.18060515     0.21800
C581        C  0.23331832  0.96453530  0.16301073    -0.34500
C582        C  0.25090176  0.47269908  0.14605362     0.15900
O583        O  0.29402891  0.49827182  0.12907841    -0.26500
C584        C  0.26921189  0.49872931  0.11753782     0.05700
C585        C  0.24179918  0.48187564  0.12728579    -0.31400
O586        O  0.23813364  0.95867631  0.19814302    -0.23200
C587        C  0.26260033  0.96364189  0.20997342    -0.03200
C588        C  0.29030928  0.97566938  0.19994986    -0.17600
H589        H  0.32423204  0.99277215  0.16438895     0.20400
H590        H  0.20833841  0.95805882  0.16261158     0.18700
H591        H  0.21831002  0.48455106  0.12187347     0.18700
H592        H  0.31373145  0.97683943  0.20560684     0.14500
O593        O  0.79566163  0.19726689  0.09245238    -0.72700
O594        O  0.79802138  0.05518664  0.05042977    -0.73700
O595        O  0.79798212  0.20147299  0.05075196    -0.62300
O596        O  0.79615563  0.05637191  0.09206733    -0.70700
O597        O  0.74472501  0.05180232  0.09089677    -0.70300
O598        O  0.74660119  0.19665515  0.04970556    -0.61500
O599        O  0.74663104  0.05108499  0.04949929    -0.74100
O600        O  0.74423705  0.19305574  0.09110978    -0.72800
Cu601      Cu  0.79878830  0.12778880  0.07123414     1.04600
Cu602      Cu  0.74382366  0.12300985  0.07004257     1.04300
C603        C  0.76948248  0.21364193  0.09924943     0.93500
C604        C  0.77252805  0.02920969  0.04380226     0.92600
C605        C  0.77251467  0.22322851  0.04409948     0.84800
C606        C  0.77009717  0.03495083  0.09885268     0.91000
C607        C  0.73258520  0.12803933  0.81948850     0.86700
C608        C  0.73634114  0.06652869  0.83301476    -0.53500
C609        C  0.76333816  0.06880713  0.84358065     0.09600
C610        C  0.78479170  0.12974714  0.83833579     0.20600
C611        C  0.73773454  0.18999280  0.83288367    -0.54300
C612        C  0.76470291  0.18948599  0.84345954     0.09700
C613        C  0.76081541  0.12883181  0.80618365    -0.53800
C614        C  0.78828787  0.12976573  0.81602776     0.10300
H615        H  0.71732694  0.03057601  0.83606288     0.14800
H616        H  0.80737496  0.13053270  0.84613907     0.00600
H617        H  0.71948546  0.22477893  0.83590443     0.15100
H618        H  0.75910136  0.12863718  0.79043008     0.14900
O619        O  0.79833911  0.45180683  0.02342780    -0.72700
O620        O  0.79807520  0.30753114  0.98205985    -0.73700
O621        O  0.79750373  0.44912394  0.98179733    -0.62300
O622        O  0.79847606  0.30550869  0.02370838    -0.70700
O623        O  0.74707162  0.30114316  0.02368955    -0.70300
O624        O  0.74604868  0.44387358  0.98222305    -0.61900
O625        O  0.74660994  0.30324775  0.98227783    -0.74100
O626        O  0.74693369  0.44669654  0.02359071    -0.72800
Cu627      Cu  0.79993023  0.37866408  0.00296027     1.04600
Cu628      Cu  0.74493316  0.37355861  0.00317228     1.04300
C629        C  0.77264215  0.47333639  0.02962444     0.93500
C630        C  0.77220970  0.28648459  0.97478379     0.92600
C631        C  0.77145778  0.46548050  0.97462788     0.84800
C632        C  0.77278477  0.27930401  0.02986755     0.91000
C633        C  0.78839507  0.37782804  0.25576863     0.86700
C634        C  0.78453207  0.31607147  0.24220843    -0.53500
C635        C  0.75895224  0.31701002  0.23035939     0.09600
C636        C  0.73849648  0.37718296  0.23449617     0.20600
C637        C  0.78646795  0.43939472  0.24209438    -0.54300
C638        C  0.76086236  0.43770603  0.23024474     0.09700
C639        C  0.75861319  0.37754466  0.26770296    -0.53800
C640        C  0.73234646  0.37705194  0.25666041     0.10300
H641        H  0.80288094  0.28065089  0.24021703     0.14800
H642        H  0.71709604  0.37688612  0.22552902     0.00600
H643        H  0.80599570  0.47481086  0.23990054     0.15100
H644        H  0.75802871  0.37739131  0.28347290     0.14900
O645        O  0.97694894  0.30028742  0.59278971    -0.72700
O646        O  0.97490058  0.44263500  0.55073024    -0.73700
O647        O  0.97534344  0.29658585  0.55123276    -0.62300
O648        O  0.97605358  0.44143604  0.59232662    -0.70700
O649        O  0.52751670  0.44509407  0.59202862    -0.70300
O650        O  0.52673951  0.30221156  0.55051719    -0.61500
O651        O  0.52630795  0.44770353  0.55054048    -0.74100
O652        O  0.52838849  0.30452411  0.59180535    -0.72800
Cu653      Cu  0.97399236  0.37002449  0.57156093     1.04600
Cu654      Cu  0.52898718  0.37512042  0.57097374     1.04300
C655        C  0.50309338  0.28367379  0.59971586     0.93500
C656        C  0.50045123  0.46914044  0.54446959     0.92600
C657        C  0.50092050  0.27522907  0.54480411     0.84800
C658        C  0.50198471  0.46201279  0.59959875     0.91000
O659        O  0.97474484  0.04694173  0.52376013    -0.72700
O660        O  0.97581776  0.19359814  0.48290685    -0.73700
O661        O  0.97577372  0.05263030  0.48204855    -0.62300
O662        O  0.97505989  0.19312524  0.52443468    -0.70700
O663        O  0.52647800  0.19738415  0.52465515    -0.70300
O664        O  0.52721500  0.05530937  0.48310998    -0.61500
O665        O  0.52727733  0.19628663  0.48328944    -0.74100
O666        O  0.52614409  0.05191528  0.52447518    -0.72800
Cu667      Cu  0.97351389  0.12133650  0.50350115     1.04600
Cu668      Cu  0.52851133  0.12531023  0.50412586     1.04300
C669        C  0.50034878  0.02523019  0.53022092     0.93500
C670        C  0.50177649  0.21429030  0.47578609     0.92600
C671        C  0.50173767  0.03576917  0.47505821     0.84800
C672        C  0.50076243  0.21920319  0.53068274     0.91000
C673        C  0.98230521  0.37391391  0.31913546     0.86700
C674        C  0.98485229  0.31429417  0.33351517    -0.53500
C675        C  0.51099123  0.31759775  0.34487710     0.09600
C676        C  0.53270286  0.37851021  0.33991066     0.20600
C677        C  0.98609788  0.43737341  0.33199367    -0.54300
C678        C  0.51181953  0.43835567  0.34371192     0.09700
C679        C  0.51186331  0.37332187  0.30695004    -0.53800
C680        C  0.53835922  0.37567731  0.31774874     0.10300
H681        H  0.96547535  0.27923829  0.33655461     0.14800
H682        H  0.55434423  0.38114067  0.34861352     0.00600
H683        H  0.96746755  0.47217594  0.33388578     0.15100
H684        H  0.51215330  0.37071706  0.29119904     0.14900
C685        C  0.53994936  0.12582886  0.75466062     0.86700
C686        C  0.53485997  0.06350715  0.74144010    -0.53500
C687        C  0.50785162  0.06342044  0.73091236     0.09600
C688        C  0.98748698  0.12273305  0.73610204     0.20600
C689        C  0.53581506  0.18684811  0.74095838    -0.54300
C690        C  0.50846612  0.18436937  0.73077525     0.09700
C691        C  0.51184962  0.12499133  0.76810712    -0.53800
C692        C  0.98426813  0.12348463  0.75839067     0.10300
H693        H  0.55320880  0.02893074  0.73846924     0.14800
H694        H  0.96476420  0.12071956  0.72850173     0.00600
H695        H  0.55472647  0.22255768  0.73744003     0.15100
H696        H  0.51371995  0.12624299  0.78385101     0.14900
C697        C  0.52289644  0.47183305  0.39323406     0.30000
C698        C  0.53897618  0.47034482  0.41099598    -0.36400
C699        C  0.52109057  0.47817656  0.42777669     0.16000
C700        C  0.48958891  0.98714310  0.42705029     0.21800
C701        C  0.47354998  0.98815081  0.40927882    -0.34500
C702        C  0.49141291  0.48053161  0.39260894     0.15900
O703        O  0.53471577  0.46216610  0.37584580    -0.26500
C704        C  0.51058899  0.46555124  0.36379944     0.05700
C705        C  0.48303791  0.47751230  0.37353977    -0.31400
O706        O  0.47803421  0.00128861  0.44422592    -0.23200
C707        C  0.50243784  0.00175932  0.45610489    -0.03200
C708        C  0.52980844  0.98693907  0.44664944    -0.17600
H709        H  0.56375025  0.46440451  0.41166872     0.20400
H710        H  0.94890422  0.99580337  0.40853472     0.18700
H711        H  0.95971917  0.47741377  0.36773860     0.18700
H712        H  0.55318843  0.48967871  0.45244868     0.14500
C713        C  0.51999750  0.27493087  0.42968574     0.30000
C714        C  0.53936029  0.28066755  0.41339187    -0.36400
C715        C  0.52440856  0.28369547  0.39530017     0.16000
C716        C  0.99261980  0.28238422  0.39335853     0.21800
C717        C  0.97323457  0.27807533  0.40967870    -0.34500
C718        C  0.48817141  0.27426592  0.42778815     0.15900
O719        O  0.52895163  0.26110208  0.44755204    -0.26500
C720        C  0.50258929  0.25157413  0.45729235     0.05700
C721        C  0.97644793  0.26038893  0.44578212    -0.31400
O722        O  0.98364803  0.28774146  0.37508438    -0.23200
C723        C  0.51004699  0.29238810  0.36513870    -0.03200
C724        C  0.53614137  0.28970046  0.37702215    -0.17600
H725        H  0.56432491  0.28016345  0.41467687     0.20400
H726        H  0.94825469  0.27595771  0.40831270     0.18700
H727        H  0.95244850  0.24957644  0.44952233     0.18700
H728        H  0.56025226  0.29579355  0.37293704     0.14500
C729        C  0.51913726  0.51549873  0.64656592     0.30000
C730        C  0.53749120  0.51622401  0.66341531    -0.36400
C731        C  0.52175378  0.02288135  0.68099518     0.16000
C732        C  0.99025348  0.03080434  0.68198418     0.21800
C733        C  0.97186196  0.03087761  0.66507509    -0.34500
C734        C  0.98749980  0.52229552  0.64747812     0.15900
O735        O  0.52861138  0.50058380  0.62896374    -0.26500
C736        C  0.50279670  0.49745170  0.61835875     0.05700
C737        C  0.97648083  0.51143029  0.62907826    -0.31400
O738        O  0.98074187  0.04022212  0.69996399    -0.23200
C739        C  0.50642574  0.03720041  0.71070466    -0.03200
C740        C  0.53261665  0.02596574  0.69955227    -0.17600
H741        H  0.56222239  0.50954787  0.66287948     0.20400
H742        H  0.94702419  0.03579198  0.66566658     0.18700
H743        H  0.95249961  0.50668044  0.62449675     0.18700
H744        H  0.55660719  0.02621717  0.70413803     0.14500
C745        C  0.52110499  0.22351955  0.68198166     0.30000
C746        C  0.53866550  0.22793913  0.66489936    -0.36400
C747        C  0.52179854  0.22945251  0.64745400     0.16000
C748        C  0.98984048  0.22698585  0.64684317     0.21800
C749        C  0.97228730  0.22136412  0.66392722    -0.34500
C750        C  0.98918030  0.22030647  0.68137182     0.15900
O751        O  0.53209962  0.21841978  0.69980571    -0.26500
C752        C  0.50689685  0.21190326  0.71082731     0.05700
C753        C  0.97952213  0.21351592  0.70009097    -0.31400
O754        O  0.97891623  0.23851176  0.62926285    -0.23200
C755        C  0.50417485  0.24814523  0.61844308    -0.03200
C756        C  0.53151520  0.24179007  0.62896085    -0.17600
H757        H  0.56372454  0.23118793  0.66520830     0.20400
H758        H  0.94722373  0.21998595  0.66367199     0.18700
H759        H  0.95597429  0.20545370  0.70513472     0.18700
H760        H  0.55499852  0.25320685  0.62420457     0.14500
C761        C  0.60318427  0.37349585  0.28680863     0.30000
C762        C  0.61882054  0.37411255  0.26890757    -0.36400
C763        C  0.65128426  0.37394812  0.26992827     0.16000
C764        C  0.66719648  0.37297846  0.28735804     0.21800
C765        C  0.65156381  0.37202441  0.30524206    -0.34500
C766        C  0.61913446  0.37248594  0.30422232     0.15900
O767        O  0.57294917  0.37460392  0.28927026    -0.26500
C768        C  0.56936744  0.37445087  0.30853452     0.05700
C769        C  0.59743412  0.37300757  0.31856531    -0.31400
O770        O  0.69745939  0.37387081  0.28495646    -0.23200
C771        C  0.70117083  0.37546763  0.26571341    -0.03200
C772        C  0.67311602  0.37550501  0.25561821    -0.17600
H773        H  0.60654059  0.37523527  0.25515440     0.20400
H774        H  0.66385569  0.37156979  0.31899863     0.18700
H775        H  0.60152298  0.37256279  0.33410177     0.18700
H776        H  0.66915709  0.37687171  0.24007335     0.14500
C777        C  0.86664491  0.37685092  0.27118810     0.30000
C778        C  0.89882038  0.37634399  0.26855879    -0.36400
C779        C  0.91672554  0.37405775  0.28558999     0.16000
C780        C  0.90387891  0.37258678  0.30392592     0.21800
C781        C  0.87168308  0.37311270  0.30655813    -0.34500
C782        C  0.85375779  0.37530963  0.28951505     0.15900
O783        O  0.84561396  0.37835446  0.25728971    -0.26500
C784        C  0.81875171  0.37780933  0.26675186     0.05700
C785        C  0.82248754  0.37603007  0.28692523    -0.31400
O786        O  0.92497833  0.37151379  0.31780628    -0.23200
C787        C  0.95180652  0.37214377  0.30829392    -0.03200
C788        C  0.94797625  0.37361818  0.28813001    -0.17600
H789        H  0.90915986  0.37762689  0.25423461     0.20400
H790        H  0.86135103  0.37201895  0.32088484     0.18700
H791        H  0.80502357  0.37484183  0.29815198     0.18700
H792        H  0.96536174  0.37532771  0.27685884     0.14500
C793        C  0.66835749  0.12725384  0.78711323     0.30000
C794        C  0.65307877  0.12794682  0.76905415    -0.36400
C795        C  0.62062205  0.12773619  0.76971944     0.16000
C796        C  0.60428414  0.12682569  0.78694526     0.21800
C797        C  0.61955673  0.12605246  0.80500004    -0.34500
C798        C  0.65200496  0.12633253  0.80433415     0.15900
O799        O  0.69859443  0.12772297  0.78992146    -0.26500
C800        C  0.70167774  0.12714530  0.80921166     0.05700
C801        C  0.67341529  0.12619476  0.81889818    -0.31400
O802        O  0.57405415  0.12649988  0.78415284    -0.23200
C803        C  0.57093142  0.12720037  0.76486634    -0.03200
C804        C  0.59918321  0.12803791  0.75516163    -0.17600
H805        H  0.66561500  0.12868111  0.75544175     0.20400
H806        H  0.60702112  0.12533048  0.81861254     0.18700
H807        H  0.66938850  0.12576552  0.83443964     0.18700
H808        H  0.60318747  0.12837426  0.73961861     0.14500
C809        C  0.86698547  0.13007223  0.80318351     0.30000
C810        C  0.89901079  0.12878168  0.80655317    -0.36400
C811        C  0.91770832  0.12768115  0.78992773     0.16000
C812        C  0.90574490  0.12802361  0.77128574     0.21800
C813        C  0.87373406  0.12959091  0.76791311    -0.34500
C814        C  0.85503590  0.13049701  0.78453826     0.15900
O815        O  0.84523790  0.13012463  0.81658287    -0.26500
C816        C  0.81893754  0.13053315  0.80643104     0.05700
C817        C  0.82369704  0.13091917  0.78637216    -0.31400
O818        O  0.92743594  0.12634341  0.75788771    -0.23200
C819        C  0.95371563  0.12486287  0.76803243    -0.03200
C820        C  0.94901513  0.12565788  0.78808791    -0.17600
H821        H  0.90865514  0.12819594  0.82111535     0.20400
H822        H  0.86407859  0.12964194  0.75335067     0.18700
H823        H  0.80670826  0.13096545  0.77476508     0.18700
H824        H  0.96601401  0.12481431  0.79967939     0.14500
C825        C  0.75470326  0.23232679  0.92799668     0.30000
C826        C  0.73596241  0.23125964  0.91131876    -0.36400
C827        C  0.75142244  0.22685228  0.89354223     0.16000
C828        C  0.78305975  0.22173135  0.89221110     0.21800
C829        C  0.80186954  0.22207162  0.90893432    -0.34500
C830        C  0.78644293  0.22795139  0.92676584     0.15900
O831        O  0.74542437  0.24594426  0.94572524    -0.26500
C832        C  0.77146103  0.25070533  0.95608683     0.05700
C833        C  0.79774165  0.23885632  0.94509482    -0.31400
O834        O  0.79229810  0.21412339  0.87410326    -0.23200
C835        C  0.76628072  0.21559445  0.86363972    -0.03200
C836        C  0.74015211  0.22394137  0.87508302    -0.17600
H837        H  0.71112858  0.23607950  0.91211381     0.20400
H838        H  0.82679684  0.21937771  0.90807682     0.18700
H839        H  0.82177334  0.24548408  0.94943898     0.18700
H840        H  0.71604543  0.22158291  0.87071206     0.14500
C841        C  0.78130176  0.03779954  0.89230893     0.30000
C842        C  0.80010829  0.04024801  0.90901287    -0.36400
C843        C  0.78476589  0.52997593  0.92682375     0.16000
C844        C  0.75310133  0.51889980  0.92805379     0.21800
C845        C  0.73434071  0.01734992  0.91135568    -0.34500
C846        C  0.74971976  0.02628864  0.89358228     0.15900
O847        O  0.79055868  0.04813562  0.87426440    -0.26500
C848        C  0.76463981  0.04229034  0.86373269     0.05700
C849        C  0.73849803  0.02815959  0.87508607    -0.31400
O850        O  0.74407839  0.50194286  0.94573040    -0.23200
C851        C  0.77023049  0.50183365  0.95601597    -0.03200
C852        C  0.79628016  0.52004059  0.94505645    -0.17600
H853        H  0.82499450  0.04805588  0.90815859     0.20400
H854        H  0.70953037  0.50742777  0.91214680     0.18700
H855        H  0.71441974  0.02578989  0.87066023     0.18700
H856        H  0.82037904  0.51822776  0.94932868     0.14500
C857        C  0.78086681  0.26380775  0.14717744     0.30000
C858        C  0.79665260  0.26257582  0.16500991    -0.36400
C859        C  0.77863165  0.27139305  0.18163451     0.16000
C860        C  0.74735841  0.28247210  0.18083958     0.21800
C861        C  0.73148877  0.28387708  0.16296288    -0.34500
C862        C  0.74945524  0.27385063  0.14628941     0.15900
O863        O  0.79257015  0.24854726  0.13014437    -0.26500
C864        C  0.76841010  0.24840155  0.11809694     0.05700
C865        C  0.74099526  0.26471181  0.12731446    -0.31400
O866        O  0.73565041  0.29420346  0.19816782    -0.23200
C867        C  0.75965949  0.28950672  0.21028946    -0.03200
C868        C  0.78694447  0.27469030  0.20068769    -0.17600
H869        H  0.82117451  0.25357338  0.16589313     0.20400
H870        H  0.70684837  0.29149000  0.16212853     0.18700
H871        H  0.71775076  0.26279998  0.12135135     0.18700
H872        H  0.81018696  0.27306109  0.20654272     0.14500
C873        C  0.78277241  0.98229417  0.14632701     0.30000
C874        C  0.79929090  0.48409034  0.16395342    -0.36400
C875        C  0.78155506  0.47705487  0.18093366     0.16000
C876        C  0.74980595  0.46733353  0.18062795     0.21800
C877        C  0.73325007  0.46458124  0.16303477    -0.34500
C878        C  0.75097536  0.97256052  0.14602884     0.15900
O879        O  0.79410696  0.99806467  0.12905080    -0.26500
C880        C  0.76929179  0.99850132  0.11750804     0.05700
C881        C  0.74187741  0.98167550  0.12725787    -0.31400
O882        O  0.73807424  0.45861173  0.19816504    -0.23200
C883        C  0.76254223  0.46357386  0.20999414    -0.03200
C884        C  0.79024872  0.47563600  0.19997123    -0.17600
H885        H  0.82416167  0.49288334  0.16441173     0.20400
H886        H  0.70827035  0.45809170  0.16263670     0.18700
H887        H  0.71838918  0.98436368  0.12184520     0.18700
H888        H  0.81367071  0.47683359  0.20562751     0.14500
O889        O  0.79565692  0.69742221  0.09241674    -0.72700
O890        O  0.79795055  0.55516626  0.05045255    -0.73700
O891        O  0.79798540  0.70142832  0.05072692    -0.62300
O892        O  0.79608777  0.55650892  0.09208755    -0.70700
O893        O  0.74465677  0.55201881  0.09091811    -0.70300
O894        O  0.74660337  0.69670117  0.04967919    -0.61500
O895        O  0.74655941  0.55114010  0.04951980    -0.74100
O896        O  0.74423168  0.69328312  0.09107465    -0.72800
Cu897      Cu  0.79875316  0.62783542  0.07123080     1.04600
Cu898      Cu  0.74378701  0.62314593  0.07003841     1.04300
C899        C  0.76948387  0.71389041  0.09920100     0.93500
C900        C  0.77244978  0.52922194  0.04382744     0.92600
C901        C  0.77252766  0.72321147  0.04406971     0.84800
C902        C  0.77002333  0.53515009  0.09887813     0.91000
C903        C  0.73256748  0.62795894  0.81948095     0.86700
C904        C  0.73631679  0.56650282  0.83302769    -0.53500
C905        C  0.76331437  0.56880785  0.84359332     0.09600
C906        C  0.78477474  0.62971647  0.83832780     0.20600
C907        C  0.73772482  0.68996783  0.83285316    -0.54300
C908        C  0.76469170  0.68949035  0.84342954     0.09700
C909        C  0.76079657  0.62867872  0.80617557    -0.53800
C910        C  0.78827059  0.62964465  0.81601897     0.10300
H911        H  0.71729987  0.53057064  0.83608563     0.14800
H912        H  0.80735808  0.63052205  0.84613181     0.00600
H913        H  0.71948086  0.72478032  0.83586106     0.15100
H914        H  0.75908077  0.62843020  0.79042213     0.14900
O915        O  0.79842040  0.95176015  0.02340048    -0.72700
O916        O  0.79810053  0.80745006  0.98202486    -0.73700
O917        O  0.79757418  0.94905397  0.98176536    -0.62300
O918        O  0.79851770  0.80543190  0.02367458    -0.70700
O919        O  0.74711274  0.80114128  0.02365851    -0.70300
O920        O  0.74611871  0.94386122  0.98220130    -0.61900
O921        O  0.74663561  0.80324016  0.98225065    -0.74100
O922        O  0.74701566  0.94668868  0.02356359    -0.72800
Cu923      Cu  0.79998746  0.87859129  0.00292813     1.04600
Cu924      Cu  0.74499044  0.87355282  0.00314575     1.04300
C925        C  0.77272648  0.97331769  0.02959665     0.93500
C926        C  0.77222577  0.78644240  0.97475163     0.92600
C927        C  0.77152815  0.96544159  0.97460242     0.84800
C928        C  0.77281894  0.77926613  0.02983431     0.91000
C929        C  0.78848907  0.87782094  0.25572240     0.86700
C930        C  0.78465370  0.81611853  0.24214024    -0.53500
C931        C  0.75906692  0.81704478  0.23029718     0.09600
C932        C  0.73858372  0.87715035  0.23445506     0.20600
C933        C  0.78652738  0.93944113  0.24207058    -0.54300
C934        C  0.76092085  0.93774100  0.23022130     0.09700
C935        C  0.75870612  0.87740912  0.26765921    -0.53800
C936        C  0.73243647  0.87690166  0.25661854     0.10300
H937        H  0.80302107  0.78075425  0.24013092     0.14800
H938        H  0.71718101  0.87684047  0.22548973     0.00600
H939        H  0.80604068  0.97490412  0.23988464     0.15100
H940        H  0.75812321  0.87718201  0.28342891     0.14900
O941        O  0.97697521  0.80027245  0.59274172    -0.72700
O942        O  0.97486199  0.94265011  0.55068548    -0.73700
O943        O  0.97532272  0.79657829  0.55118729    -0.62300
O944        O  0.97606954  0.94142735  0.59228879    -0.70700
O945        O  0.52753195  0.94507837  0.59197080    -0.70300
O946        O  0.52671830  0.80221278  0.55045827    -0.61500
O947        O  0.52626821  0.94770795  0.55047940    -0.74100
O948        O  0.52841395  0.80451809  0.59174256    -0.72800
Cu949      Cu  0.97398763  0.87002129  0.57151738     1.04600
Cu950      Cu  0.52898130  0.87511990  0.57091187     1.04300
C951        C  0.50312552  0.78365523  0.59965874     0.93500
C952        C  0.50040778  0.96915741  0.54441723     0.92600
C953        C  0.50089699  0.77521349  0.54475616     0.84800
C954        C  0.50200864  0.96198573  0.59955455     0.91000
O955        O  0.97477763  0.54683027  0.52380390    -0.72700
O956        O  0.97574863  0.69321833  0.48289268    -0.73700
O957        O  0.97577676  0.55225643  0.48209938    -0.62300
O958        O  0.97503839  0.69299757  0.52441959    -0.70700
O959        O  0.52645675  0.69733108  0.52462497    -0.70300
O960        O  0.52721953  0.55505363  0.48314358    -0.61500
O961        O  0.52720934  0.69603471  0.48325971    -0.74100
O962        O  0.52617805  0.55186578  0.52450832    -0.72800
Cu963      Cu  0.97350182  0.62108724  0.50351827     1.04600
Cu964      Cu  0.52850060  0.62516464  0.50412692     1.04300
C965        C  0.50038980  0.52517515  0.53026544     0.93500
C966        C  0.50169073  0.71393482  0.47575609     0.92600
C967        C  0.50174330  0.53540716  0.47511008     0.84800
C968        C  0.50073883  0.71914076  0.53065075     0.91000
C969        C  0.98240619  0.87389956  0.31909720     0.86700
C970        C  0.98492214  0.81428960  0.33348368    -0.53500
C971        C  0.51105592  0.81755147  0.34485110     0.09600
C972        C  0.53279926  0.87841265  0.33987984     0.20600
C973        C  0.98622583  0.93737007  0.33194813    -0.54300
C974        C  0.51194486  0.93831609  0.34366949     0.09700
C975        C  0.51196566  0.87322548  0.30691622    -0.53800
C976        C  0.53845933  0.87553821  0.31771763     0.10300
H977        H  0.96553327  0.77925949  0.33651736     0.14800
H978        H  0.55444116  0.88102102  0.34858162     0.00600
H979        H  0.96761708  0.97223488  0.33382479     0.15100
H980        H  0.51225703  0.87059751  0.29116586     0.14900
C981        C  0.53994310  0.62596809  0.75465179     0.86700
C982        C  0.53483530  0.56355697  0.74146844    -0.53500
C983        C  0.50783177  0.56344258  0.73093669     0.09600
C984        C  0.98748758  0.62282917  0.73608611     0.20600
C985        C  0.53583758  0.68689602  0.74091189    -0.54300
C986        C  0.50849204  0.68439280  0.73072556     0.09700
C987        C  0.51183971  0.62527546  0.76809339    -0.53800
C988        C  0.98426100  0.62373292  0.75837335     0.10300
H989        H  0.55317416  0.52893643  0.73851461     0.14800
H990        H  0.96476732  0.62079574  0.72848263     0.00600
H991        H  0.55476243  0.72255029  0.73737692     0.15100
H992        H  0.51370617  0.62661135  0.78383709     0.14900
C993        C  0.52299565  0.97196550  0.39318896     0.30000
C994        C  0.53902622  0.97038643  0.41096835    -0.36400
C995        C  0.52111889  0.97848202  0.42772847     0.16000
C996        C  0.48953483  0.48650789  0.42713431     0.21800
C997        C  0.47344414  0.48739252  0.40937942    -0.34500
C998        C  0.49154053  0.98101875  0.39252964     0.15900
O999        O  0.53482645  0.96204909  0.37581601    -0.26500
C1000       C  0.51073644  0.96562559  0.36374619     0.05700
C1001       C  0.48320090  0.97797474  0.37345548    -0.31400
O1002       O  0.47800030  0.50055797  0.44432246    -0.23200
C1003       C  0.50244279  0.50129436  0.45617240    -0.03200
C1004       C  0.52981903  0.48672600  0.44668671    -0.17600
H1005       H  0.56377853  0.96415282  0.41166924     0.20400
H1006       H  0.94877708  0.49479746  0.40866283     0.18700
H1007       H  0.95989826  0.97811118  0.36763562     0.18700
H1008       H  0.55316066  0.98961103  0.45244250     0.14500
C1009       C  0.51989452  0.77467791  0.42966196     0.30000
C1010       C  0.53929753  0.78070870  0.41339401    -0.36400
C1011       C  0.52439291  0.78358496  0.39528430     0.16000
C1012       C  0.99260766  0.78185446  0.39330077     0.21800
C1013       C  0.97317658  0.77721748  0.40959548    -0.34500
C1014       C  0.48806946  0.77357569  0.42772367     0.15900
O1015       O  0.52883480  0.76099879  0.44754106    -0.26500
C1016       C  0.50246344  0.75113873  0.45724975     0.05700
C1017       C  0.97632661  0.75957034  0.44570502    -0.31400
O1018       O  0.98368119  0.78719808  0.37501676    -0.23200
C1019       C  0.51010717  0.79226252  0.36510743    -0.03200
C1020       C  0.53617354  0.78983606  0.37702480    -0.17600
H1021       H  0.56426485  0.78056382  0.41471121     0.20400
H1022       H  0.94820064  0.77477489  0.40819781     0.18700
H1023       H  0.95233956  0.74845948  0.44941883     0.18700
H1024       H  0.56028783  0.79625145  0.37297769     0.14500
C1025       C  0.51917427  0.01528984  0.64653974     0.30000
C1026       C  0.53750457  0.01587343  0.66339907    -0.36400
C1027       C  0.52174526  0.52303380  0.68102076     0.16000
C1028       C  0.99022490  0.53064822  0.68202750     0.21800
C1029       C  0.97181014  0.53059287  0.66512884    -0.34500
C1030       C  0.98755417  0.02238135  0.64743337     0.15900
O1031       O  0.52864455  0.00028441  0.62894338    -0.26500
C1032       C  0.50284442  0.99738132  0.61832243     0.05700
C1033       C  0.97654241  0.01159331  0.62902690    -0.31400
O1034       O  0.98071495  0.53994531  0.70001267    -0.23200
C1035       C  0.50642158  0.53715205  0.71073900    -0.03200
C1036       C  0.53262604  0.52619042  0.69957249    -0.17600
H1037       H  0.56221829  0.00895899  0.66287742     0.20400
H1038       H  0.94695898  0.53526531  0.66573427     0.18700
H1039       H  0.95256321  0.00707495  0.62442944     0.18700
H1040       H  0.55662571  0.52669571  0.70414688     0.14500
C1041       C  0.52114802  0.72337855  0.68191736     0.30000
C1042       C  0.53871032  0.72780988  0.66483513    -0.36400
C1043       C  0.52184428  0.72934511  0.64738899     0.16000
C1044       C  0.98988591  0.72687556  0.64677825     0.21800
C1045       C  0.97233229  0.72123550  0.66386123    -0.34500
C1046       C  0.98922336  0.72016666  0.68130582     0.15900
O1047       O  0.53213891  0.71830915  0.69974378    -0.26500
C1048       C  0.50693261  0.71181899  0.71076409     0.05700
C1049       C  0.97956119  0.71340862  0.70002467    -0.31400
O1050       O  0.97896054  0.73843545  0.62920060    -0.23200
C1051       C  0.50421728  0.74809833  0.61838138    -0.03200
C1052       C  0.53155947  0.74172773  0.62889693    -0.17600
H1053       H  0.56376979  0.73107033  0.66514505     0.20400
H1054       H  0.94726801  0.71987032  0.66360564     0.18700
H1055       H  0.95601071  0.70538278  0.70506820     0.18700
H1056       H  0.55504138  0.75316194  0.62414147     0.14500
C1057       C  0.60327805  0.87330054  0.28677323     0.30000
C1058       C  0.61891134  0.87396292  0.26887090    -0.36400
C1059       C  0.65137333  0.87369540  0.26988841     0.16000
C1060       C  0.66728620  0.87258514  0.28731652     0.21800
C1061       C  0.65165602  0.87157695  0.30520151    -0.34500
C1062       C  0.61922861  0.87214731  0.30418534     0.15900
O1063       O  0.57304619  0.87449950  0.28923800    -0.26500
C1064       C  0.56946610  0.87426036  0.30850255     0.05700
C1065       C  0.59753111  0.87267357  0.31853080    -0.31400
O1066       O  0.69754860  0.87346464  0.28491345    -0.23200
C1067       C  0.70125980  0.87519861  0.26567136    -0.03200
C1068       C  0.67320453  0.87532435  0.25557769    -0.17600
H1069       H  0.60663045  0.87521111  0.25511895     0.20400
H1070       H  0.66394974  0.87102542  0.31895697     0.18700
H1071       H  0.60161940  0.87213423  0.33406700     0.18700
H1072       H  0.66924541  0.87683602  0.24003414     0.14500
C1073       C  0.86674839  0.87696280  0.27113938     0.30000
C1074       C  0.89892730  0.87653265  0.26851146    -0.36400
C1075       C  0.91683205  0.87419005  0.28554308     0.16000
C1076       C  0.90398138  0.87260779  0.30387767     0.21800
C1077       C  0.87178356  0.87305815  0.30650815    -0.34500
C1078       C  0.85385933  0.87530126  0.28946539     0.15900
O1079       O  0.84571545  0.87848226  0.25724133    -0.26500
C1080       C  0.81885056  0.87782545  0.26670346     0.05700
C1081       C  0.82258740  0.87595612  0.28687591    -0.31400
O1082       O  0.92507764  0.87148652  0.31775960    -0.23200
C1083       C  0.95190953  0.87218246  0.30825053    -0.03200
C1084       C  0.94808416  0.87376438  0.28808629    -0.17600
H1085       H  0.90926955  0.87790086  0.25418776     0.20400
H1086       H  0.86144877  0.87186539  0.32083350     0.18700
H1087       H  0.80512306  0.87466623  0.29810237     0.18700
H1088       H  0.96547352  0.87554980  0.27681822     0.14500
C1089       C  0.66833729  0.62715357  0.78711061     0.30000
C1090       C  0.65305974  0.62781031  0.76905162    -0.36400
C1091       C  0.62060640  0.62773733  0.76971667     0.16000
C1092       C  0.60426912  0.62699075  0.78694217     0.21800
C1093       C  0.61954078  0.62625300  0.80499783    -0.34500
C1094       C  0.65198714  0.62638899  0.80433202     0.15900
O1095       O  0.69857256  0.62753383  0.78991738    -0.26500
C1096       C  0.70165849  0.62705270  0.80920716     0.05700
C1097       C  0.67339860  0.62624631  0.81889540    -0.31400
O1098       O  0.57404084  0.62675454  0.78414796    -0.23200
C1099       C  0.57092092  0.62734510  0.76486077    -0.03200
C1100       C  0.59917130  0.62802767  0.75515768    -0.17600
H1101       H  0.66559433  0.62841745  0.75543958     0.20400
H1102       H  0.60700636  0.62565610  0.81861033     0.18700
H1103       H  0.66937494  0.62593238  0.83443742     0.18700
H1104       H  0.60317666  0.62823875  0.73961446     0.14500
C1105       C  0.86696957  0.63003715  0.80316743     0.30000
C1106       C  0.89899738  0.62882571  0.80653438    -0.36400
C1107       C  0.91769423  0.62779797  0.78990770     0.16000
C1108       C  0.90572914  0.62812739  0.77126609     0.21800
C1109       C  0.87371445  0.62960799  0.76789589    -0.34500
C1110       C  0.85501663  0.63044696  0.78452291     0.15900
O1111       O  0.84522381  0.63004892  0.81656894    -0.26500
C1112       C  0.81892006  0.63041460  0.80641963     0.05700
C1113       C  0.82367649  0.63081095  0.78635999    -0.31400
O1114       O  0.92742267  0.62651645  0.75786716    -0.23200
C1115       C  0.95370484  0.62509790  0.76801190    -0.03200
C1116       C  0.94900294  0.62586242  0.78806714    -0.17600
H1117       H  0.90864515  0.62825527  0.82109600     0.20400
H1118       H  0.86405619  0.62965224  0.75333409     0.18700
H1119       H  0.80668537  0.63084751  0.77475440     0.18700
H1120       H  0.96600184  0.62503434  0.79965861     0.14500
C1121       C  0.75468868  0.73238612  0.92795796     0.30000
C1122       C  0.73594827  0.73138005  0.91127897    -0.36400
C1123       C  0.75140845  0.72697859  0.89350157     0.16000
C1124       C  0.78304382  0.72181500  0.89217166     0.21800
C1125       C  0.80185080  0.72209449  0.90889459    -0.34500
C1126       C  0.78642563  0.72795825  0.92672616     0.15900
O1127       O  0.74541674  0.74598449  0.94568980    -0.26500
C1128       C  0.77145630  0.75067902  0.95605129     0.05700
C1129       C  0.79772942  0.73880077  0.94505615    -0.31400
O1130       O  0.79228285  0.71418778  0.87406558    -0.23200
C1131       C  0.76626914  0.71567733  0.86360041    -0.03200
C1132       C  0.74014048  0.72407245  0.87504118    -0.17600
H1133       H  0.71111619  0.73622855  0.91207426     0.20400
H1134       H  0.82677665  0.71935440  0.90803715     0.18700
H1135       H  0.82176312  0.74537878  0.94939959     0.18700
H1136       H  0.71603414  0.72172127  0.87066934     0.14500
C1137       C  0.78126829  0.53783042  0.89232984     0.30000
C1138       C  0.80007112  0.54024379  0.90903627    -0.36400
C1139       C  0.78481076  0.02996557  0.92680135     0.16000
C1140       C  0.75314880  0.01884971  0.92803443     0.21800
C1141       C  0.73429838  0.51743007  0.91137283    -0.34500
C1142       C  0.74968372  0.52635770  0.89360105     0.15900
O1143       O  0.79053071  0.54815878  0.87428508    -0.26500
C1144       C  0.76461168  0.54234112  0.86375193     0.05700
C1145       C  0.73846609  0.52824386  0.87510451    -0.31400
O1146       O  0.74413610  0.00187992  0.94571140    -0.23200
C1147       C  0.77029225  0.00179841  0.95599317    -0.03200
C1148       C  0.79633461  0.02003859  0.94503185    -0.17600
H1149       H  0.82495882  0.54801901  0.90818474     0.20400
H1150       H  0.70957562  0.00731548  0.91213264     0.18700
H1151       H  0.71438765  0.52589290  0.87067722     0.18700
H1152       H  0.82043552  0.01825121  0.94930088     0.14500
C1153       C  0.78092403  0.76436219  0.14708762     0.30000
C1154       C  0.79674635  0.76320936  0.16490708    -0.36400
C1155       C  0.77873732  0.77182842  0.18154577     0.16000
C1156       C  0.74744056  0.78266475  0.18077648     0.21800
C1157       C  0.73153570  0.78401194  0.16291266    -0.34500
C1158       C  0.74949120  0.77417499  0.14622489     0.15900
O1159       O  0.79261269  0.74914145  0.13004832    -0.26500
C1160       C  0.76842237  0.74879142  0.11802380     0.05700
C1161       C  0.74100303  0.76494916  0.12725978    -0.31400
O1162       O  0.73574000  0.79421431  0.19811694    -0.23200
C1163       C  0.75977947  0.78963702  0.21021927    -0.03200
C1164       C  0.78707651  0.77508806  0.20059376    -0.17600
H1165       H  0.82128480  0.75436979  0.16577104     0.20400
H1166       H  0.70687599  0.79141478  0.16209845     0.18700
H1167       H  0.71774319  0.76281783  0.12132057     0.18700
H1168       H  0.81033346  0.77361087  0.20643333     0.14500
C1169       C  0.78269841  0.48244880  0.14635161     0.30000
C1170       C  0.79936041  0.98399772  0.16393057    -0.36400
C1171       C  0.78161934  0.97704826  0.18091131     0.16000
C1172       C  0.74986941  0.96735067  0.18060516     0.21800
C1173       C  0.73331822  0.96453527  0.16301073    -0.34500
C1174       C  0.75090169  0.47269915  0.14605361     0.15900
O1175       O  0.79402882  0.49827180  0.12907837    -0.26500
C1176       C  0.76921173  0.49872933  0.11753780     0.05700
C1177       C  0.74179912  0.48187567  0.12728585    -0.31400
O1178       O  0.73813360  0.95867629  0.19814305    -0.23200
C1179       C  0.76260032  0.96364188  0.20997342    -0.03200
C1180       C  0.79030926  0.97566938  0.19994985    -0.17600
H1181       H  0.82423105  0.99277193  0.16438893     0.20400
H1182       H  0.70833836  0.95805880  0.16261158     0.18700
H1183       H  0.71830928  0.48455126  0.12187354     0.18700
H1184       H  0.81373140  0.97683944  0.20560679     0.14500
loop_ 
_geom_bond_atom_site_label_1 
_geom_bond_atom_site_label_2 
_geom_bond_distance 
_geom_bond_site_symmetry_2 
_ccdc_geom_bond_type 
O1           Cu9   2.012       .  S
O1           C11   1.278       .  A
O2           Cu9   2.025       .  S
O2           C12   1.280       .  A
O3           Cu9   2.023       .  S
O3           C13   1.279       .  A
O4           Cu9   2.008       .  S
O4           C14   1.277       .  A
O5          Cu10   2.007       .  S
O5           C14   1.278       .  A
O6          Cu10   2.015       .  S
O6           C13   1.279       .  A
O7          Cu10   2.011       .  S
O7           C12   1.278       .  A
O8          Cu10   2.003       .  S
O8           C11   1.277       .  A
Cu9         Cu10   2.374       .  S
C11         C272   1.468       .  S
C12         C333   1.475   1_545  S
C13          C40   1.476       .  S
C14         C288   1.469   1_545  S
C15          C16   1.541       .  S
C15          C21   1.527       .  S
C15          C19   1.541       .  S
C15         C208   1.507       .  S
C16          H23   1.086       .  S
C16          C17   1.371       .  D
C17          C18   1.534       .  S
C17         C256   1.481       .  S
C18          C22   1.541       .  S
C18          C20   1.533       .  S
C18          H24   1.111       .  S
C19          H25   1.086       .  S
C19          C20   1.371       .  D
C20         C243   1.480       .  S
C21          H26   1.085       .  S
C21          C22   1.363       .  D
C22         C224   1.481       .  S
O27         Cu35   2.021       .  S
O27          C37   1.279       .  A
O28         Cu35   2.009   1_556  S
O28          C38   1.278       .  A
O29         Cu35   2.016   1_556  S
O29          C39   1.279       .  A
O30         Cu35   2.027       .  S
O30          C40   1.280       .  A
O31         Cu36   2.010       .  S
O31          C40   1.278       .  A
O32         Cu36   1.997   1_556  S
O32          C39   1.276       .  A
O33         Cu36   2.002   1_556  S
O33          C38   1.277       .  A
O34         Cu36   2.014       .  S
O34          C37   1.279       .  A
Cu35        Cu36   2.374       .  S
C37         C308   1.474       .  S
C38         C240   1.467       .  S
C39         C259   1.467       .  S
C41          C42   1.539       .  S
C41          C47   1.528       .  S
C41          C45   1.540       .  S
C41         C192   1.510       .  S
C42          H49   1.086       .  S
C42          C43   1.371       .  D
C43          C44   1.535       .  S
C43         C275   1.484       .  S
C44          C48   1.547       .  S
C44          C46   1.536       .  S
C44          H50   1.109       .  S
C45          H51   1.086       .  S
C45          C46   1.370       .  D
C46         C291   1.482       .  S
C47          H52   1.084       .  S
C47          C48   1.362       .  D
C48         C179   1.485       .  S
O53         Cu61   2.011       .  S
O53         C655   1.278       .  A
O54         Cu61   2.023       .  S
O54         C656   1.279       .  A
O55         Cu61   2.017       .  S
O55         C657   1.278       .  A
O56         Cu61   2.007       .  S
O56         C658   1.277       .  A
O57         Cu62   2.005       .  S
O57          C66   1.277       .  A
O58         Cu62   2.013       .  S
O58          C65   1.278       .  A
O59         Cu62   2.011       .  S
O59          C64   1.278       .  A
O60         Cu62   1.996       .  S
O60          C63   1.276       .  A
Cu61       Cu654   2.375       .  S
Cu62       Cu653   2.375   1_455  S
C63         O645   1.278   1_455  A
C63         C163   1.466       .  S
C64         O646   1.279   1_455  A
C64         C373   1.474       .  S
C65         O647   1.278   1_455  A
C65          C80   1.472       .  S
C66         O648   1.277   1_455  A
C66         C144   1.467       .  S
O67         Cu75   2.024       .  S
O67         C669   1.279       .  A
O68         Cu75   2.008       .  S
O68         C670   1.278       .  A
O69         Cu75   2.010       .  S
O69         C671   1.278       .  A
O70         Cu75   2.020       .  S
O70         C672   1.279       .  A
O71         Cu76   2.010       .  S
O71          C80   1.277       .  A
O72         Cu76   2.000       .  S
O72          C79   1.277       .  A
O73         Cu76   2.004       .  S
O73          C78   1.277       .  A
O74         Cu76   2.012       .  S
O74          C77   1.278       .  A
Cu75       Cu668   2.375       .  S
Cu76       Cu667   2.375   1_455  S
C77         O659   1.279   1_455  A
C77         C360   1.474   1_545  S
C78         O660   1.278   1_455  A
C78         C128   1.467       .  S
C79         O661   1.278   1_455  A
C79         C115   1.467       .  S
C80         O662   1.279   1_455  A
C81          C82   1.542       .  S
C81          C85   1.538       .  S
C81         C679   1.530       .  S
C81         C195   1.510       .  S
C82          H89   1.086       .  S
C82         C675   1.370       .  D
C83          C84   1.536       .  S
C83         C674   1.370   1_455  D
C83         C131   1.478       .  S
C84          C88   1.544       .  S
C84          C86   1.537       .  S
C84          H90   1.107       .  S
C85          H91   1.086       .  S
C85         C678   1.369       .  D
C86         C677   1.369   1_455  D
C86         C112   1.484       .  S
C87         C673   1.530   1_455  S
C87          H92   1.084       .  S
C87          C88   1.361       .  D
C88         C176   1.485       .  S
C93          C94   1.539       .  S
C93          C99   1.528       .  S
C93          C97   1.543       .  S
C93         C211   1.508       .  S
C94         H101   1.086       .  S
C94          C95   1.370       .  D
C95         C688   1.534   1_455  S
C95         C147   1.483       .  S
C96         C100   1.538       .  S
C96         C687   1.534       .  S
C96         C690   1.534       .  S
C96         H102   1.109       .  S
C97         H103   1.086       .  S
C97          C98   1.370       .  D
C98         C688   1.534   1_455  S
C98         C160   1.476       .  S
C99         H104   1.085       .  S
C99         C692   1.363   1_455  D
C100        C691   1.363       .  D
C100        C227   1.480       .  S
C105        C110   1.378   1_455  A
C105        C106   1.403       .  A
C105        O111   1.318       .  A
C106        C107   1.402       .  A
C106        H117   1.082       .  S
C107        C412   1.360       .  A
C107        C404   1.380   1_455  A
C108        C109   1.402       .  A
C108        C403   1.380   1_655  A
C108        O114   1.318   1_565  A
C109        C406   1.401       .  A
C109        H710   1.082       .  S
C110        C113   1.359       .  A
C110        C405   1.401       .  A
O111        C112   1.332       .  A
C112        C113   1.396   1_455  A
C113        H711   1.082       .  S
O114        C115   1.330   1_655  A
C115        C116   1.392   1_545  A
C116        C403   1.360       .  A
C116        H416   1.083       .  S
H118        C701   1.082       .  S
H119        C705   1.082       .  S
H120        C412   1.083       .  S
C121        C126   1.380   1_455  A
C121        C122   1.402       .  A
C121        O127   1.317       .  A
C122        C123   1.401       .  A
C122        H133   1.082       .  S
C123        C132   1.359       .  A
C123        C716   1.379   1_455  A
C124        C125   1.403       .  A
C124        C715   1.379       .  A
C124        O130   1.318       .  A
C125        C718   1.403       .  A
C125        H134   1.082       .  S
C126        C717   1.403       .  A
C126        C721   1.361       .  A
O127        C128   1.330       .  A
C128        C721   1.392   1_455  A
C129        C718   1.361       .  A
C129        C720   1.392       .  A
C129        H135   1.083       .  S
O130        C723   1.332       .  A
C131        C132   1.392       .  A
C131        O722   1.332   1_455  A
C132        H136   1.082       .  S
C137        C138   1.400       .  A
C137        C734   1.380   1_455  A
C137        O143   1.316       .  A
C138        C435   1.399       .  A
C138        H149   1.082       .  S
C139        C148   1.357       .  A
C139        C434   1.399       .  A
C139        C732   1.378   1_455  A
C140        C141   1.405       .  A
C140        C731   1.378       .  A
C140        O146   1.319       .  A
C141        C438   1.405       .  A
C141        H150   1.082       .  S
C142        C145   1.363       .  A
C142        C729   1.380       .  A
C142        C437   1.404       .  A
O143        C144   1.329       .  A
C144        C737   1.394   1_455  A
C145        C736   1.394       .  A
C145        H151   1.082       .  S
O146        C739   1.333       .  A
C147        C148   1.394       .  A
C147        O738   1.333   1_455  A
C148        H152   1.082       .  S
C153        C154   1.401       .  A
C153        C750   1.379   1_455  A
C153        O159   1.317       .  A
C154        C155   1.401       .  A
C154        H165   1.082       .  S
C155        C164   1.358       .  A
C155        C748   1.380   1_455  A
C156        C157   1.402       .  A
C156        C747   1.380       .  A
C156        O162   1.318       .  A
C157        C158   1.401       .  A
C157        H166   1.082       .  S
C158        C161   1.358       .  A
C158        C745   1.379       .  A
O159        C160   1.331       .  A
C160        C753   1.393   1_455  A
C161        C752   1.393       .  A
C161        H167   1.082       .  S
O162        C755   1.330       .  A
C163        C164   1.392       .  A
C163        O754   1.330   1_455  A
C164        H168   1.083       .  S
C169        C174   1.379       .  A
C169        C170   1.405       .  A
C169        O175   1.319       .  A
C170        C171   1.404       .  A
C170        H181   1.082       .  S
C171        C180   1.365       .  A
C171        C172   1.379       .  A
C172        C173   1.404       .  A
C172        O178   1.318       .  A
C173        C174   1.403       .  A
C173        H182   1.082       .  S
C174        C177   1.363       .  A
O175        C176   1.333       .  A
C176        C177   1.394       .  A
C177        H183   1.081       .  S
O178        C179   1.333       .  A
C179        C180   1.394       .  A
C180        H184   1.081       .  S
C185        C190   1.379       .  A
C185        C186   1.403       .  A
C185        O191   1.317       .  A
C186        C187   1.402       .  A
C186        H197   1.082       .  S
C187        C196   1.361       .  A
C187        C188   1.378       .  A
C188        C189   1.404       .  A
C188        O194   1.317       .  A
C189        C190   1.403       .  A
C189        H198   1.082       .  S
C190        C193   1.363       .  A
O191        C192   1.332       .  A
C192        C193   1.395       .  A
C193        H199   1.081       .  S
O194        C195   1.333       .  A
C195        C196   1.395       .  A
C196        H200   1.081       .  S
C201        C206   1.380       .  A
C201        C202   1.403       .  A
C201        O207   1.319       .  A
C202        C203   1.403       .  A
C202        H213   1.082       .  S
C203        C212   1.361       .  A
C203        C204   1.380       .  A
C204        C205   1.403       .  A
C204        O210   1.319       .  A
C205        C206   1.403       .  A
C205        H214   1.082       .  S
C206        C209   1.360       .  A
O207        C208   1.332       .  A
C208        C209   1.392       .  A
C209        H215   1.082       .  S
O210        C211   1.331       .  A
C211        C212   1.393       .  A
C212        H216   1.082       .  S
C217        C222   1.379       .  A
C217        C218   1.403       .  A
C217        O223   1.318       .  A
C218        C219   1.402       .  A
C218        H229   1.082       .  S
C219        C228   1.361       .  A
C219        C220   1.379       .  A
C220        C221   1.403       .  A
C220        O226   1.318       .  A
C221        C222   1.402       .  A
C221        H230   1.082       .  S
C222        C225   1.361       .  A
O223        C224   1.331       .  A
C224        C225   1.394       .  A
C225        H231   1.082       .  S
O226        C227   1.331       .  A
C227        C228   1.394       .  A
C228        H232   1.082       .  S
C233        C238   1.380       .  A
C233        C234   1.400       .  A
C233        O239   1.315       .  A
C234        C235   1.399       .  A
C234        H245   1.082       .  S
C235        C244   1.357       .  A
C235        C236   1.378       .  A
C236        C237   1.405       .  A
C236        O242   1.319       .  A
C237        C238   1.404       .  A
C237        H246   1.082       .  S
C238        C241   1.363       .  A
O239        C240   1.329       .  A
C240        C241   1.393       .  A
C241        H247   1.082       .  S
O242        C243   1.333       .  A
C243        C244   1.393       .  A
C244        H248   1.082       .  S
C249        C254   1.378       .  A
C249        C250   1.403       .  A
C249        O255   1.317       .  A
C250        C547   1.403       .  A
C250        H261   1.082       .  S
C251        C260   1.363       .  A
C251        C252   1.380       .  A
C251        C546   1.403       .  A
C252        C549   1.402       .  A
C252        O258   1.316       .  A
C253        C254   1.400       .  A
C253        C548   1.402       .  A
C253        H558   1.082       .  S
C254        C257   1.359       .  A
O255        C256   1.332       .  A
C256        C257   1.394       .  A
C257        H263   1.082       .  S
O258        C259   1.330       .  A
C259        C260   1.392       .  A
C260        H264   1.082       .  S
H262        C549   1.082       .  S
C265        C270   1.380       .  A
C265        C266   1.400       .  A
C265        O271   1.317       .  A
C266        C267   1.400       .  A
C266        H277   1.082       .  S
C267        C276   1.357       .  A
C267        C268   1.378       .  A
C268        C269   1.405       .  A
C268        O274   1.320       .  A
C269        C270   1.405       .  A
C269        H278   1.082       .  S
C270        C273   1.363       .  A
O271        C272   1.329       .  A
C272        C273   1.394       .  A
C273        H279   1.082       .  S
O274        C275   1.333       .  A
C275        C276   1.394       .  A
C276        H280   1.082       .  S
C281        C286   1.380       .  A
C281        C578   1.403       .  A
C281        O287   1.318       .  A
C282        C283   1.402       .  A
C282        C577   1.403       .  A
C282        H293   1.082       .  S
C283        C292   1.360       .  A
C283        C284   1.378       .  A
C284        C285   1.402       .  A
C284        O290   1.317       .  A
C285        C582   1.402       .  A
C285        H294   1.082       .  S
C286        C289   1.360       .  A
C286        C581   1.402       .  A
O287        C288   1.331       .  A
C288        C289   1.392       .  A
C289        H295   1.083       .  S
O290        C291   1.332       .  A
C291        C292   1.396       .  A
C292        H296   1.082       .  S
O297       Cu305   2.012       .  S
O297        C307   1.278       .  A
O298       Cu305   2.025       .  S
O298        C308   1.280       .  A
O299       Cu305   2.023       .  S
O299        C309   1.279       .  A
O300       Cu305   2.008       .  S
O300        C310   1.277       .  A
O301       Cu306   2.007       .  S
O301        C310   1.278       .  A
O302       Cu306   2.015       .  S
O302        C309   1.279       .  A
O303       Cu306   2.011       .  S
O303        C308   1.278       .  A
O304       Cu306   2.003       .  S
O304        C307   1.277       .  A
Cu305      Cu306   2.374       .  S
C307        C568   1.468       .  S
C309        C336   1.475       .  S
C310        C584   1.469       .  S
C311        C312   1.541       .  S
C311        C317   1.527       .  S
C311        C315   1.541       .  S
C311        C504   1.507       .  S
C312        H319   1.086       .  S
C312        C313   1.371       .  D
C313        C314   1.534       .  S
C313        C552   1.481       .  S
C314        C318   1.541       .  S
C314        C316   1.533       .  S
C314        H320   1.111       .  S
C315        H321   1.086       .  S
C315        C316   1.371       .  D
C316        C539   1.480       .  S
C317        H322   1.085       .  S
C317        C318   1.363       .  D
C318        C520   1.481       .  S
O323       Cu331   2.021       .  S
O323        C333   1.279       .  A
O324       Cu331   2.010   1_556  S
O324        C334   1.278       .  A
O325       Cu331   2.016   1_556  S
O325        C335   1.279       .  A
O326       Cu331   2.027       .  S
O326        C336   1.280       .  A
O327       Cu332   2.010       .  S
O327        C336   1.277       .  A
O328       Cu332   1.997   1_556  S
O328        C335   1.276       .  A
O329       Cu332   2.002   1_556  S
O329        C334   1.277       .  A
O330       Cu332   2.014       .  S
O330        C333   1.279       .  A
Cu331      Cu332   2.374       .  S
C334        C536   1.467       .  S
C335        C555   1.467   1_565  S
C337        C338   1.539       .  S
C337        C343   1.528       .  S
C337        C341   1.540       .  S
C337        C488   1.511       .  S
C338        H345   1.086       .  S
C338        C339   1.371       .  D
C339        C340   1.535       .  S
C339        C571   1.483       .  S
C340        C344   1.547       .  S
C340        C342   1.536       .  S
C340        H346   1.109       .  S
C341        H347   1.086       .  S
C341        C342   1.370       .  D
C342        C587   1.482       .  S
C343        H348   1.084       .  S
C343        C344   1.362       .  D
C344        C475   1.485       .  S
O349       Cu357   2.011       .  S
O349        C951   1.278       .  A
O350       Cu357   2.024       .  S
O350        C952   1.279       .  A
O351       Cu357   2.018       .  S
O351        C953   1.278       .  A
O352       Cu357   2.007       .  S
O352        C954   1.277       .  A
O353       Cu358   2.005       .  S
O353        C362   1.277       .  A
O354       Cu358   2.013       .  S
O354        C361   1.278       .  A
O355       Cu358   2.011       .  S
O355        C360   1.278       .  A
O356       Cu358   1.996       .  S
O356        C359   1.276       .  A
Cu357      Cu950   2.375       .  S
Cu358      Cu949   2.375   1_455  S
C359        O941   1.278   1_455  A
C359        C459   1.466       .  S
C360        O942   1.279   1_455  A
C361        O943   1.278   1_455  A
C361        C376   1.472       .  S
C362        O944   1.277   1_455  A
C362        C440   1.467       .  S
O363       Cu371   2.023       .  S
O363        C965   1.279       .  A
O364       Cu371   2.007       .  S
O364        C966   1.278       .  A
O365       Cu371   2.010       .  S
O365        C967   1.278       .  A
O366       Cu371   2.020       .  S
O366        C968   1.279       .  A
O367       Cu372   2.010       .  S
O367        C376   1.277       .  A
O368       Cu372   1.999       .  S
O368        C375   1.277       .  A
O369       Cu372   2.004       .  S
O369        C374   1.277       .  A
O370       Cu372   2.012       .  S
O370        C373   1.278       .  A
Cu371      Cu964   2.375       .  S
Cu372      Cu963   2.375   1_455  S
C373        O955   1.279   1_455  A
C374        O956   1.278   1_455  A
C374        C424   1.467       .  S
C375        O957   1.278   1_455  A
C375        C411   1.467       .  S
C376        O958   1.279   1_455  A
C377        C378   1.542       .  S
C377        C975   1.530       .  S
C377        C381   1.538       .  S
C377        C491   1.510       .  S
C378        H385   1.086       .  S
C378        C971   1.370       .  D
C379        C380   1.536       .  S
C379        C970   1.370   1_455  D
C379        C427   1.478       .  S
C380        C384   1.545       .  S
C380        C382   1.537       .  S
C380        H386   1.107       .  S
C381        H387   1.086       .  S
C381        C974   1.369       .  D
C382        C973   1.369   1_455  D
C382        C408   1.484       .  S
C383        C969   1.530   1_455  S
C383        H388   1.084       .  S
C383        C384   1.361       .  D
C384        C472   1.485       .  S
C389        C390   1.539       .  S
C389        C395   1.528       .  S
C389        C393   1.543       .  S
C389        C507   1.508       .  S
C390        H397   1.086       .  S
C390        C391   1.370       .  D
C391        C984   1.534   1_455  S
C391        C443   1.483       .  S
C392        C983   1.534       .  S
C392        C396   1.538       .  S
C392        C986   1.534       .  S
C392        H398   1.109       .  S
C393        H399   1.086       .  S
C393        C394   1.370       .  D
C394        C984   1.534   1_455  S
C394        C456   1.476       .  S
C395        H400   1.085       .  S
C395        C988   1.363   1_455  D
C396        C987   1.363       .  D
C396        C523   1.480       .  S
C401        C406   1.378   1_455  A
C401        C402   1.403       .  A
C401        O407   1.318       .  A
C402        C403   1.403       .  A
C402        H413   1.082       .  S
C404        C405   1.402       .  A
C404        O410   1.318       .  A
C405       H1006   1.082       .  S
C406        C409   1.359       .  A
O407        C408   1.332       .  A
C408        C409   1.396   1_455  A
C409       H1007   1.082       .  S
O410        C411   1.330   1_655  A
C411        C412   1.392       .  A
H414        C997   1.082       .  S
H415       C1001   1.082       .  S
C417        C422   1.380   1_455  A
C417        C418   1.402       .  A
C417        O423   1.317       .  A
C418        C419   1.401       .  A
C418        H429   1.082       .  S
C419        C428   1.359       .  A
C419       C1012   1.379   1_455  A
C420       C1011   1.379       .  A
C420        C421   1.403       .  A
C420        O426   1.318       .  A
C421       C1014   1.403       .  A
C421        H430   1.082       .  S
C422       C1013   1.403       .  A
C422       C1017   1.361       .  A
O423        C424   1.330       .  A
C424       C1017   1.392   1_455  A
C425       C1014   1.361       .  A
C425       C1016   1.392       .  A
C425        H431   1.083       .  S
O426       C1019   1.332       .  A
C427        C428   1.392       .  A
C427       O1018   1.332   1_455  A
C428        H432   1.082       .  S
C433       C1030   1.380   1_455  A
C433        C434   1.400       .  A
C433        O439   1.316       .  A
C434        H445   1.082       .  S
C435        C444   1.357       .  A
C435       C1028   1.378   1_455  A
C436       C1027   1.378       .  A
C436        C437   1.405       .  A
C436        O442   1.319       .  A
C437        H446   1.082       .  S
C438       C1025   1.380       .  A
C438        C441   1.364       .  A
O439        C440   1.329   1_545  A
C440       C1033   1.394   1_465  A
C441       C1032   1.394   1_545  A
C441        H447   1.082       .  S
O442       C1035   1.333       .  A
C443        C444   1.394       .  A
C443       O1034   1.333   1_455  A
C444        H448   1.082       .  S
C449       C1046   1.379   1_455  A
C449        C450   1.401       .  A
C449        O455   1.317       .  A
C450        C451   1.401       .  A
C450        H461   1.082       .  S
C451        C460   1.358       .  A
C451       C1044   1.380   1_455  A
C452       C1043   1.380       .  A
C452        C453   1.402       .  A
C452        O458   1.318       .  A
C453        C454   1.401       .  A
C453        H462   1.082       .  S
C454       C1041   1.379       .  A
C454        C457   1.358       .  A
O455        C456   1.331       .  A
C456       C1049   1.393   1_455  A
C457       C1048   1.393       .  A
C457        H463   1.082       .  S
O458       C1051   1.330       .  A
C459        C460   1.392       .  A
C459       O1050   1.330   1_455  A
C460        H464   1.083       .  S
C465        C470   1.379       .  A
C465        C466   1.405       .  A
C465        O471   1.319       .  A
C466        C467   1.404       .  A
C466        H477   1.082       .  S
C467        C476   1.365       .  A
C467        C468   1.379       .  A
C468        C469   1.404       .  A
C468        O474   1.318       .  A
C469        C470   1.403       .  A
C469        H478   1.082       .  S
C470        C473   1.363       .  A
O471        C472   1.333       .  A
C472        C473   1.394       .  A
C473        H479   1.081       .  S
O474        C475   1.333       .  A
C475        C476   1.394       .  A
C476        H480   1.081       .  S
C481        C486   1.379       .  A
C481        C482   1.403       .  A
C481        O487   1.317       .  A
C482        C483   1.402       .  A
C482        H493   1.082       .  S
C483        C492   1.361       .  A
C483        C484   1.378       .  A
C484        C485   1.404       .  A
C484        O490   1.317       .  A
C485        C486   1.403       .  A
C485        H494   1.082       .  S
C486        C489   1.363       .  A
O487        C488   1.332       .  A
C488        C489   1.395       .  A
C489        H495   1.081       .  S
O490        C491   1.333       .  A
C491        C492   1.395       .  A
C492        H496   1.081       .  S
C497        C502   1.380       .  A
C497        C498   1.403       .  A
C497        O503   1.319       .  A
C498        C499   1.403       .  A
C498        H509   1.082       .  S
C499        C508   1.361       .  A
C499        C500   1.380       .  A
C500        C501   1.403       .  A
C500        O506   1.319       .  A
C501        C502   1.403       .  A
C501        H510   1.082       .  S
C502        C505   1.360       .  A
O503        C504   1.331       .  A
C504        C505   1.392       .  A
C505        H511   1.083       .  S
O506        C507   1.331       .  A
C507        C508   1.393       .  A
C508        H512   1.082       .  S
C513        C518   1.379       .  A
C513        C514   1.403       .  A
C513        O519   1.318       .  A
C514        C515   1.402       .  A
C514        H525   1.082       .  S
C515        C524   1.361       .  A
C515        C516   1.379       .  A
C516        C517   1.403       .  A
C516        O522   1.318       .  A
C517        C518   1.402       .  A
C517        H526   1.082       .  S
C518        C521   1.361       .  A
O519        C520   1.331       .  A
C520        C521   1.394       .  A
C521        H527   1.082       .  S
O522        C523   1.331       .  A
C523        C524   1.394       .  A
C524        H528   1.082       .  S
C529        C534   1.380       .  A
C529        C530   1.400       .  A
C529        O535   1.315       .  A
C530        C531   1.399       .  A
C530        H541   1.082       .  S
C531        C540   1.357       .  A
C531        C532   1.378       .  A
C532        C533   1.404       .  A
C532        O538   1.319       .  A
C533        C534   1.404       .  A
C533        H542   1.082       .  S
C534        C537   1.363       .  A
O535        C536   1.329       .  A
C536        C537   1.393       .  A
C537        H543   1.082       .  S
O538        C539   1.333       .  A
C539        C540   1.393       .  A
C540        H544   1.082       .  S
C545        C550   1.378       .  A
C545        C546   1.403       .  A
C545        O551   1.317       .  A
C546        H557   1.082       .  S
C547        C556   1.363       .  A
C547        C548   1.380       .  A
C548        O554   1.316       .  A
C549        C550   1.400       .  A
C550        C553   1.359       .  A
O551        C552   1.332       .  A
C552        C553   1.394       .  A
C553        H559   1.082       .  S
O554        C555   1.330       .  A
C555        C556   1.392       .  A
C556        H560   1.082       .  S
C561        C566   1.380       .  A
C561        C562   1.400       .  A
C561        O567   1.316       .  A
C562        C563   1.400       .  A
C562        H573   1.082       .  S
C563        C572   1.357       .  A
C563        C564   1.378       .  A
C564        C565   1.405       .  A
C564        O570   1.320       .  A
C565        C566   1.405       .  A
C565        H574   1.082       .  S
C566        C569   1.363       .  A
O567        C568   1.329       .  A
C568        C569   1.394       .  A
C569        H575   1.082       .  S
O570        C571   1.333       .  A
C571        C572   1.394       .  A
C572        H576   1.082       .  S
C577        C582   1.380       .  A
C577        O583   1.318       .  A
C578        C579   1.402       .  A
C578        H589   1.082       .  S
C579        C588   1.360       .  A
C579        C580   1.378       .  A
C580        C581   1.402       .  A
C580        O586   1.318       .  A
C581        H590   1.082       .  S
C582        C585   1.360       .  A
O583        C584   1.331       .  A
C584        C585   1.392       .  A
C585        H591   1.083       .  S
O586        C587   1.332       .  A
C587        C588   1.396       .  A
C588        H592   1.082       .  S
O593       Cu601   2.012       .  S
O593        C603   1.278       .  A
O594       Cu601   2.025       .  S
O594        C604   1.280       .  A
O595       Cu601   2.023       .  S
O595        C605   1.279       .  A
O596       Cu601   2.008       .  S
O596        C606   1.277       .  A
O597       Cu602   2.007       .  S
O597        C606   1.278       .  A
O598       Cu602   2.015       .  S
O598        C605   1.279       .  A
O599       Cu602   2.011       .  S
O599        C604   1.278       .  A
O600       Cu602   2.003       .  S
O600        C603   1.277       .  A
Cu601      Cu602   2.374       .  S
C603        C864   1.468       .  S
C604        C925   1.475   1_545  S
C605        C632   1.476       .  S
C606        C880   1.469   1_545  S
C607        C608   1.541       .  S
C607        C613   1.527       .  S
C607        C611   1.541       .  S
C607        C800   1.507       .  S
C608        H615   1.086       .  S
C608        C609   1.371       .  D
C609        C610   1.534       .  S
C609        C848   1.481       .  S
C610        C614   1.541       .  S
C610        C612   1.533       .  S
C610        H616   1.111       .  S
C611        H617   1.086       .  S
C611        C612   1.371       .  D
C612        C835   1.480       .  S
C613        H618   1.085       .  S
C613        C614   1.363       .  D
C614        C816   1.481       .  S
O619       Cu627   2.021       .  S
O619        C629   1.279       .  A
O620       Cu627   2.009   1_556  S
O620        C630   1.278       .  A
O621       Cu627   2.016   1_556  S
O621        C631   1.279       .  A
O622       Cu627   2.027       .  S
O622        C632   1.280       .  A
O623       Cu628   2.010       .  S
O623        C632   1.278       .  A
O624       Cu628   1.997   1_556  S
O624        C631   1.276       .  A
O625       Cu628   2.002   1_556  S
O625        C630   1.277       .  A
O626       Cu628   2.014       .  S
O626        C629   1.279       .  A
Cu627      Cu628   2.374       .  S
C629        C900   1.474       .  S
C630        C832   1.467       .  S
C631        C851   1.467       .  S
C633        C634   1.539       .  S
C633        C639   1.528       .  S
C633        C637   1.540       .  S
C633        C784   1.510       .  S
C634        H641   1.086       .  S
C634        C635   1.371       .  D
C635        C636   1.535       .  S
C635        C867   1.484       .  S
C636        C640   1.547       .  S
C636        C638   1.536       .  S
C636        H642   1.109       .  S
C637        H643   1.086       .  S
C637        C638   1.370       .  D
C638        C883   1.482       .  S
C639        H644   1.084       .  S
C639        C640   1.362       .  D
C640        C771   1.485       .  S
O645       Cu653   2.011       .  S
O646       Cu653   2.023       .  S
O647       Cu653   2.017       .  S
O648       Cu653   2.007       .  S
O649       Cu654   2.005       .  S
O649        C658   1.277       .  A
O650       Cu654   2.013       .  S
O650        C657   1.278       .  A
O651       Cu654   2.011       .  S
O651        C656   1.278       .  A
O652       Cu654   1.996       .  S
O652        C655   1.276       .  A
C655        C755   1.466       .  S
C656        C965   1.474       .  S
C657        C672   1.472       .  S
C658        C736   1.467       .  S
O659       Cu667   2.024       .  S
O660       Cu667   2.008       .  S
O661       Cu667   2.010       .  S
O662       Cu667   2.020       .  S
O663       Cu668   2.010       .  S
O663        C672   1.277       .  A
O664       Cu668   2.000       .  S
O664        C671   1.277       .  A
O665       Cu668   2.004       .  S
O665        C670   1.277       .  A
O666       Cu668   2.012       .  S
O666        C669   1.278       .  A
C669        C952   1.474   1_545  S
C670        C720   1.467       .  S
C671        C707   1.467       .  S
C673        C674   1.542       .  S
C673        C677   1.538       .  S
C673        C787   1.510       .  S
C674        H681   1.086       .  S
C675        C676   1.536       .  S
C675        C723   1.478       .  S
C676        C680   1.544       .  S
C676        C678   1.537       .  S
C676        H682   1.107       .  S
C677        H683   1.086       .  S
C678        C704   1.484       .  S
C679        H684   1.084       .  S
C679        C680   1.361       .  D
C680        C768   1.485       .  S
C685        C686   1.539       .  S
C685        C691   1.528       .  S
C685        C689   1.543       .  S
C685        C803   1.508       .  S
C686        H693   1.086       .  S
C686        C687   1.370       .  D
C687        C739   1.483       .  S
C688        C692   1.538       .  S
C688        H694   1.109       .  S
C689        H695   1.086       .  S
C689        C690   1.370       .  D
C690        C752   1.476       .  S
C691        H696   1.085       .  S
C692        C819   1.480       .  S
C697        C702   1.378       .  A
C697        C698   1.403       .  A
C697        O703   1.318       .  A
C698        C699   1.402       .  A
C698        H709   1.082       .  S
C699       C1004   1.360       .  A
C699        C996   1.380       .  A
C700        C995   1.380       .  A
C700        C701   1.402       .  A
C700        O706   1.318   1_565  A
C701        C998   1.401       .  A
C702        C997   1.401       .  A
C702        C705   1.359       .  A
O703        C704   1.332       .  A
C704        C705   1.396       .  A
O706        C707   1.330       .  A
C707        C708   1.392   1_545  A
C708        C995   1.360       .  A
C708       H1008   1.083       .  S
H712       C1004   1.083       .  S
C713        C718   1.380       .  A
C713        C714   1.402       .  A
C713        O719   1.317       .  A
C714        C715   1.401       .  A
C714        H725   1.082       .  S
C715        C724   1.359       .  A
C716        C717   1.403       .  A
C716        O722   1.318       .  A
C717        H726   1.082       .  S
O719        C720   1.330       .  A
C721        H727   1.083       .  S
C723        C724   1.392       .  A
C724        H728   1.082       .  S
C729        C730   1.400       .  A
C729        O735   1.316       .  A
C730       C1027   1.399       .  A
C730        H741   1.082       .  S
C731       C1026   1.399       .  A
C731        C740   1.357       .  A
C732        C733   1.405       .  A
C732        O738   1.319       .  A
C733       C1030   1.405       .  A
C733        H742   1.082       .  S
C734       C1029   1.404       .  A
C734        C737   1.363       .  A
O735        C736   1.329       .  A
C737        H743   1.082       .  S
C739        C740   1.394       .  A
C740        H744   1.082       .  S
C745        C746   1.401       .  A
C745        O751   1.317       .  A
C746        C747   1.401       .  A
C746        H757   1.082       .  S
C747        C756   1.358       .  A
C748        C749   1.402       .  A
C748        O754   1.318       .  A
C749        C750   1.401       .  A
C749        H758   1.082       .  S
C750        C753   1.358       .  A
O751        C752   1.331       .  A
C753        H759   1.082       .  S
C755        C756   1.392       .  A
C756        H760   1.083       .  S
C761        C766   1.379       .  A
C761        C762   1.405       .  A
C761        O767   1.319       .  A
C762        C763   1.404       .  A
C762        H773   1.082       .  S
C763        C772   1.365       .  A
C763        C764   1.379       .  A
C764        C765   1.404       .  A
C764        O770   1.318       .  A
C765        C766   1.403       .  A
C765        H774   1.082       .  S
C766        C769   1.363       .  A
O767        C768   1.333       .  A
C768        C769   1.394       .  A
C769        H775   1.081       .  S
O770        C771   1.333       .  A
C771        C772   1.394       .  A
C772        H776   1.081       .  S
C777        C782   1.379       .  A
C777        C778   1.403       .  A
C777        O783   1.317       .  A
C778        C779   1.402       .  A
C778        H789   1.082       .  S
C779        C788   1.361       .  A
C779        C780   1.378       .  A
C780        C781   1.404       .  A
C780        O786   1.317       .  A
C781        C782   1.403       .  A
C781        H790   1.082       .  S
C782        C785   1.363       .  A
O783        C784   1.332       .  A
C784        C785   1.395       .  A
C785        H791   1.081       .  S
O786        C787   1.333       .  A
C787        C788   1.395       .  A
C788        H792   1.081       .  S
C793        C798   1.380       .  A
C793        C794   1.403       .  A
C793        O799   1.319       .  A
C794        C795   1.403       .  A
C794        H805   1.082       .  S
C795        C804   1.361       .  A
C795        C796   1.380       .  A
C796        C797   1.403       .  A
C796        O802   1.319       .  A
C797        C798   1.403       .  A
C797        H806   1.082       .  S
C798        C801   1.360       .  A
O799        C800   1.332       .  A
C800        C801   1.392       .  A
C801        H807   1.082       .  S
O802        C803   1.331       .  A
C803        C804   1.393       .  A
C804        H808   1.082       .  S
C809        C814   1.379       .  A
C809        C810   1.403       .  A
C809        O815   1.318       .  A
C810        C811   1.402       .  A
C810        H821   1.082       .  S
C811        C820   1.361       .  A
C811        C812   1.379       .  A
C812        C813   1.403       .  A
C812        O818   1.318       .  A
C813        C814   1.402       .  A
C813        H822   1.082       .  S
C814        C817   1.361       .  A
O815        C816   1.331       .  A
C816        C817   1.394       .  A
C817        H823   1.082       .  S
O818        C819   1.331       .  A
C819        C820   1.394       .  A
C820        H824   1.082       .  S
C825        C830   1.380       .  A
C825        C826   1.400       .  A
C825        O831   1.315       .  A
C826        C827   1.399       .  A
C826        H837   1.082       .  S
C827        C836   1.357       .  A
C827        C828   1.378       .  A
C828        C829   1.405       .  A
C828        O834   1.319       .  A
C829        C830   1.404       .  A
C829        H838   1.082       .  S
C830        C833   1.363       .  A
O831        C832   1.329       .  A
C832        C833   1.393       .  A
C833        H839   1.082       .  S
O834        C835   1.333       .  A
C835        C836   1.393       .  A
C836        H840   1.082       .  S
C841        C846   1.378       .  A
C841        C842   1.403       .  A
C841        O847   1.317       .  A
C842       C1139   1.403       .  A
C842        H853   1.082       .  S
C843       C1138   1.403       .  A
C843        C852   1.363       .  A
C843        C844   1.380       .  A
C844       C1141   1.402       .  A
C844        O850   1.316       .  A
C845       C1140   1.402       .  A
C845        C846   1.400       .  A
C845       H1150   1.082       .  S
C846        C849   1.359       .  A
O847        C848   1.332       .  A
C848        C849   1.394       .  A
C849        H855   1.082       .  S
O850        C851   1.330       .  A
C851        C852   1.392       .  A
C852        H856   1.082       .  S
H854       C1141   1.082       .  S
C857        C862   1.380       .  A
C857        C858   1.400       .  A
C857        O863   1.317       .  A
C858        C859   1.400       .  A
C858        H869   1.082       .  S
C859        C868   1.357       .  A
C859        C860   1.378       .  A
C860        C861   1.405       .  A
C860        O866   1.320       .  A
C861        C862   1.405       .  A
C861        H870   1.082       .  S
C862        C865   1.363       .  A
O863        C864   1.329       .  A
C864        C865   1.394       .  A
C865        H871   1.082       .  S
O866        C867   1.333       .  A
C867        C868   1.394       .  A
C868        H872   1.082       .  S
C873        C878   1.380       .  A
C873       C1170   1.403       .  A
C873        O879   1.318       .  A
C874       C1169   1.403       .  A
C874        C875   1.402       .  A
C874        H885   1.082       .  S
C875        C884   1.360       .  A
C875        C876   1.378       .  A
C876        C877   1.402       .  A
C876        O882   1.317       .  A
C877       C1174   1.402       .  A
C877        H886   1.082       .  S
C878       C1173   1.402       .  A
C878        C881   1.360       .  A
O879        C880   1.331       .  A
C880        C881   1.392       .  A
C881        H887   1.083       .  S
O882        C883   1.332       .  A
C883        C884   1.396       .  A
C884        H888   1.082       .  S
O889       Cu897   2.012       .  S
O889        C899   1.278       .  A
O890       Cu897   2.025       .  S
O890        C900   1.280       .  A
O891       Cu897   2.023       .  S
O891        C901   1.279       .  A
O892       Cu897   2.008       .  S
O892        C902   1.277       .  A
O893       Cu898   2.007       .  S
O893        C902   1.278       .  A
O894       Cu898   2.015       .  S
O894        C901   1.279       .  A
O895       Cu898   2.011       .  S
O895        C900   1.278       .  A
O896       Cu898   2.003       .  S
O896        C899   1.277       .  A
Cu897      Cu898   2.374       .  S
C899       C1160   1.468       .  S
C901        C928   1.475       .  S
C902       C1176   1.469       .  S
C903        C904   1.541       .  S
C903        C909   1.527       .  S
C903        C907   1.541       .  S
C903       C1096   1.507       .  S
C904        H911   1.086       .  S
C904        C905   1.371       .  D
C905        C906   1.534       .  S
C905       C1144   1.481       .  S
C906        C910   1.541       .  S
C906        C908   1.533       .  S
C906        H912   1.111       .  S
C907        H913   1.086       .  S
C907        C908   1.371       .  D
C908       C1131   1.480       .  S
C909        H914   1.085       .  S
C909        C910   1.363       .  D
C910       C1112   1.481       .  S
O915       Cu923   2.021       .  S
O915        C925   1.279       .  A
O916       Cu923   2.010   1_556  S
O916        C926   1.278       .  A
O917       Cu923   2.016   1_556  S
O917        C927   1.279       .  A
O918       Cu923   2.027       .  S
O918        C928   1.280       .  A
O919       Cu924   2.010       .  S
O919        C928   1.277       .  A
O920       Cu924   1.997   1_556  S
O920        C927   1.276       .  A
O921       Cu924   2.002   1_556  S
O921        C926   1.277       .  A
O922       Cu924   2.014       .  S
O922        C925   1.279       .  A
Cu923      Cu924   2.374       .  S
C926       C1128   1.467       .  S
C927       C1147   1.467   1_565  S
C929        C930   1.539       .  S
C929        C935   1.528       .  S
C929        C933   1.540       .  S
C929       C1080   1.511       .  S
C930        H937   1.086       .  S
C930        C931   1.371       .  D
C931        C932   1.535       .  S
C931       C1163   1.483       .  S
C932        C936   1.547       .  S
C932        C934   1.536       .  S
C932        H938   1.109       .  S
C933        H939   1.086       .  S
C933        C934   1.370       .  D
C934       C1179   1.482       .  S
C935        H940   1.084       .  S
C935        C936   1.362       .  D
C936       C1067   1.485       .  S
O941       Cu949   2.011       .  S
O942       Cu949   2.024       .  S
O943       Cu949   2.018       .  S
O944       Cu949   2.007       .  S
O945       Cu950   2.005       .  S
O945        C954   1.277       .  A
O946       Cu950   2.013       .  S
O946        C953   1.278       .  A
O947       Cu950   2.011       .  S
O947        C952   1.278       .  A
O948       Cu950   1.996       .  S
O948        C951   1.276       .  A
C951       C1051   1.466       .  S
C953        C968   1.472       .  S
C954       C1032   1.467       .  S
O955       Cu963   2.023       .  S
O956       Cu963   2.007       .  S
O957       Cu963   2.010       .  S
O958       Cu963   2.020       .  S
O959       Cu964   2.010       .  S
O959        C968   1.277       .  A
O960       Cu964   1.999       .  S
O960        C967   1.277       .  A
O961       Cu964   2.004       .  S
O961        C966   1.277       .  A
O962       Cu964   2.012       .  S
O962        C965   1.278       .  A
C966       C1016   1.467       .  S
C967       C1003   1.467       .  S
C969        C970   1.542       .  S
C969        C973   1.538       .  S
C969       C1083   1.510       .  S
C970        H977   1.086       .  S
C971        C972   1.536       .  S
C971       C1019   1.478       .  S
C972        C976   1.545       .  S
C972        C974   1.537       .  S
C972        H978   1.107       .  S
C973        H979   1.086       .  S
C974       C1000   1.484       .  S
C975        H980   1.084       .  S
C975        C976   1.361       .  D
C976       C1064   1.485       .  S
C981        C982   1.539       .  S
C981        C987   1.528       .  S
C981        C985   1.543       .  S
C981       C1099   1.508       .  S
C982        H989   1.086       .  S
C982        C983   1.370       .  D
C983       C1035   1.483       .  S
C984        C988   1.538       .  S
C984        H990   1.109       .  S
C985        H991   1.086       .  S
C985        C986   1.370       .  D
C986       C1048   1.476       .  S
C987        H992   1.085       .  S
C988       C1115   1.480       .  S
C993        C998   1.378       .  A
C993        C994   1.403       .  A
C993        O999   1.318       .  A
C994        C995   1.403       .  A
C994       H1005   1.082       .  S
C996        C997   1.402       .  A
C996       O1002   1.318       .  A
C998       C1001   1.359       .  A
O999       C1000   1.332       .  A
C1000      C1001   1.396       .  A
O1002      C1003   1.330       .  A
C1003      C1004   1.392       .  A
C1009      C1014   1.380       .  A
C1009      C1010   1.402       .  A
C1009      O1015   1.317       .  A
C1010      C1011   1.401       .  A
C1010      H1021   1.082       .  S
C1011      C1020   1.359       .  A
C1012      C1013   1.403       .  A
C1012      O1018   1.318       .  A
C1013      H1022   1.082       .  S
O1015      C1016   1.330       .  A
C1017      H1023   1.083       .  S
C1019      C1020   1.392       .  A
C1020      H1024   1.082       .  S
C1025      C1026   1.400       .  A
C1025      O1031   1.316       .  A
C1026      H1037   1.082       .  S
C1027      C1036   1.357       .  A
C1028      C1029   1.405       .  A
C1028      O1034   1.319       .  A
C1029      H1038   1.082       .  S
C1030      C1033   1.364       .  A
O1031      C1032   1.329   1_545  A
C1033      H1039   1.082       .  S
C1035      C1036   1.394       .  A
C1036      H1040   1.082       .  S
C1041      C1042   1.401       .  A
C1041      O1047   1.317       .  A
C1042      C1043   1.401       .  A
C1042      H1053   1.082       .  S
C1043      C1052   1.358       .  A
C1044      C1045   1.402       .  A
C1044      O1050   1.318       .  A
C1045      C1046   1.401       .  A
C1045      H1054   1.082       .  S
C1046      C1049   1.358       .  A
O1047      C1048   1.331       .  A
C1049      H1055   1.082       .  S
C1051      C1052   1.392       .  A
C1052      H1056   1.083       .  S
C1057      C1062   1.379       .  A
C1057      C1058   1.405       .  A
C1057      O1063   1.319       .  A
C1058      C1059   1.404       .  A
C1058      H1069   1.082       .  S
C1059      C1068   1.365       .  A
C1059      C1060   1.379       .  A
C1060      C1061   1.404       .  A
C1060      O1066   1.318       .  A
C1061      C1062   1.403       .  A
C1061      H1070   1.082       .  S
C1062      C1065   1.363       .  A
O1063      C1064   1.333       .  A
C1064      C1065   1.394       .  A
C1065      H1071   1.081       .  S
O1066      C1067   1.333       .  A
C1067      C1068   1.394       .  A
C1068      H1072   1.081       .  S
C1073      C1078   1.379       .  A
C1073      C1074   1.403       .  A
C1073      O1079   1.317       .  A
C1074      C1075   1.402       .  A
C1074      H1085   1.082       .  S
C1075      C1084   1.361       .  A
C1075      C1076   1.378       .  A
C1076      C1077   1.404       .  A
C1076      O1082   1.317       .  A
C1077      C1078   1.403       .  A
C1077      H1086   1.082       .  S
C1078      C1081   1.363       .  A
O1079      C1080   1.332       .  A
C1080      C1081   1.395       .  A
C1081      H1087   1.081       .  S
O1082      C1083   1.333       .  A
C1083      C1084   1.395       .  A
C1084      H1088   1.081       .  S
C1089      C1094   1.380       .  A
C1089      C1090   1.403       .  A
C1089      O1095   1.319       .  A
C1090      C1091   1.403       .  A
C1090      H1101   1.082       .  S
C1091      C1100   1.361       .  A
C1091      C1092   1.380       .  A
C1092      C1093   1.403       .  A
C1092      O1098   1.319       .  A
C1093      C1094   1.403       .  A
C1093      H1102   1.082       .  S
C1094      C1097   1.360       .  A
O1095      C1096   1.331       .  A
C1096      C1097   1.392       .  A
C1097      H1103   1.082       .  S
O1098      C1099   1.331       .  A
C1099      C1100   1.393       .  A
C1100      H1104   1.082       .  S
C1105      C1110   1.379       .  A
C1105      C1106   1.403       .  A
C1105      O1111   1.318       .  A
C1106      C1107   1.402       .  A
C1106      H1117   1.082       .  S
C1107      C1116   1.361       .  A
C1107      C1108   1.379       .  A
C1108      C1109   1.403       .  A
C1108      O1114   1.318       .  A
C1109      C1110   1.402       .  A
C1109      H1118   1.082       .  S
C1110      C1113   1.361       .  A
O1111      C1112   1.331       .  A
C1112      C1113   1.394       .  A
C1113      H1119   1.082       .  S
O1114      C1115   1.331       .  A
C1115      C1116   1.394       .  A
C1116      H1120   1.082       .  S
C1121      C1126   1.380       .  A
C1121      C1122   1.400       .  A
C1121      O1127   1.315       .  A
C1122      C1123   1.399       .  A
C1122      H1133   1.082       .  S
C1123      C1132   1.357       .  A
C1123      C1124   1.378       .  A
C1124      C1125   1.404       .  A
C1124      O1130   1.319       .  A
C1125      C1126   1.404       .  A
C1125      H1134   1.082       .  S
C1126      C1129   1.363       .  A
O1127      C1128   1.329       .  A
C1128      C1129   1.393       .  A
C1129      H1135   1.082       .  S
O1130      C1131   1.333       .  A
C1131      C1132   1.393       .  A
C1132      H1136   1.082       .  S
C1137      C1142   1.378       .  A
C1137      C1138   1.403       .  A
C1137      O1143   1.317       .  A
C1138      H1149   1.082       .  S
C1139      C1148   1.363       .  A
C1139      C1140   1.380       .  A
C1140      O1146   1.316       .  A
C1141      C1142   1.400       .  A
C1142      C1145   1.359       .  A
O1143      C1144   1.332       .  A
C1144      C1145   1.394       .  A
C1145      H1151   1.082       .  S
O1146      C1147   1.330       .  A
C1147      C1148   1.392       .  A
C1148      H1152   1.082       .  S
C1153      C1158   1.380       .  A
C1153      C1154   1.400       .  A
C1153      O1159   1.316       .  A
C1154      C1155   1.400       .  A
C1154      H1165   1.082       .  S
C1155      C1164   1.357       .  A
C1155      C1156   1.378       .  A
C1156      C1157   1.405       .  A
C1156      O1162   1.320       .  A
C1157      C1158   1.405       .  A
C1157      H1166   1.082       .  S
C1158      C1161   1.363       .  A
O1159      C1160   1.329       .  A
C1160      C1161   1.394       .  A
C1161      H1167   1.082       .  S
O1162      C1163   1.333       .  A
C1163      C1164   1.394       .  A
C1164      H1168   1.082       .  S
C1169      C1174   1.380       .  A
C1169      O1175   1.318       .  A
C1170      C1171   1.402       .  A
C1170      H1181   1.082       .  S
C1171      C1180   1.360       .  A
C1171      C1172   1.378       .  A
C1172      C1173   1.402       .  A
C1172      O1178   1.318       .  A
C1173      H1182   1.082       .  S
C1174      C1177   1.360       .  A
O1175      C1176   1.331       .  A
C1176      C1177   1.392       .  A
C1177      H1183   1.083       .  S
O1178      C1179   1.332       .  A
C1179      C1180   1.396       .  A
C1180      H1184   1.082       .  S
