geometry optimzed in LAMMPS
_audit_creation_date              2020-11-30 
_audit_creation_method            'lammps2cif' 
_symmetry_space_group_name_H-M    'P1' 
_symmetry_Int_Tables_number       1 
_symmetry_cell_setting            triclinic 
loop_ 
_symmetry_equiv_pos_as_xyz 
  x,y,z 
_cell_length_a                    41.97231162 
_cell_length_b                    67.58166616954408 
_cell_length_c                    101.37267535403755 
_cell_angle_alpha                 89.861614959559 
_cell_angle_beta                  89.87087223891827 
_cell_angle_gamma                 89.97994607249517 
loop_ 
_atom_site_label 
_atom_site_type_symbol 
_atom_site_fract_x 
_atom_site_fract_y 
_atom_site_fract_z 
_atom_site_charge 
C1          C  0.45848316  0.62048026  0.18784899     0.03200
C2          C  0.43959398  0.61974533  0.19924268    -0.13000
C3          C  0.45367854  0.61820763  0.21173781     0.00700
C4          C  0.48701787  0.61763191  0.21283063    -0.11500
C5          C  0.50629495  0.61855835  0.20148240     0.03200
C6          C  0.49171053  0.61941302  0.18902811    -0.10900
H7          H  0.41388042  0.62056825  0.19840723     0.08700
H8          H  0.49786950  0.61707855  0.22251385     0.06300
H9          H  0.50626018  0.61929731  0.18018544     0.06100
N10         N  0.30606892  0.60975143  0.03222888    -0.27300
N11         N  0.31168723  0.59855668  0.04266573    -0.35100
C12         C  0.30168685  0.58004322  0.04017127     0.01100
C13         C  0.28908943  0.57961320  0.02754506     0.07100
C14         C  0.29249095  0.59870384  0.02279731    -0.06000
H15         H  0.30413922  0.56775826  0.04695090     0.07800
H16         H  0.28550032  0.60421747  0.01320212     0.09000
Cu17       Cu  0.33296972  0.60908676  0.05968350     0.44200
Cu18       Cu  0.31687574  0.63948466  0.03124086     0.42000
Cu19       Cu  0.35057685  0.66183649  0.06035956     0.43900
N20         N  0.35307384  0.62347338  0.07565952    -0.34600
N21         N  0.35896952  0.64268197  0.07599972    -0.28900
C22         C  0.37095312  0.64731246  0.08788662    -0.05000
C23         C  0.37298737  0.63017724  0.09536167     0.07200
C24         C  0.36131576  0.61536808  0.08728586     0.01000
H25         H  0.37779679  0.66207939  0.09084660     0.08700
H26         H  0.35819230  0.59991234  0.08975930     0.07700
N27         N  0.34097508  0.67733602  0.04313036    -0.36100
N28         N  0.32857834  0.66905145  0.03252590    -0.28300
C29         C  0.32545218  0.68278101  0.02302243    -0.03500
C30         C  0.33632783  0.70065924  0.02786546     0.05100
C31         C  0.34619788  0.69661715  0.04062667     0.03200
H32         H  0.31658136  0.67978927  0.01321889     0.08300
H33         H  0.35634641  0.70693112  0.04759654     0.07100
C34         C  0.79055390  0.61702930  0.18161680     0.03200
C35         C  0.81180348  0.61864928  0.19222705    -0.13000
C36         C  0.80032056  0.61934248  0.20525176     0.00700
C37         C  0.76738621  0.61829209  0.20759189    -0.11500
C38         C  0.74573993  0.61725309  0.19708160     0.03200
C39         C  0.75766176  0.61653861  0.18411823    -0.10900
H40         H  0.83719234  0.61942868  0.19034337     0.08700
H41         H  0.75871966  0.61813180  0.21766397     0.06300
H42         H  0.74130493  0.61592241  0.17587310     0.06100
N43         N  0.81322421  0.58108234  0.01701463    -0.27300
N44         N  0.81150950  0.57138867  0.02835227    -0.35100
C45         C  0.80323112  0.55248417  0.02591411     0.01100
C46         C  0.79960209  0.55013987  0.01239876     0.07100
C47         C  0.80637438  0.56857945  0.00710696    -0.06000
H48         H  0.80039348  0.54124299  0.03343796     0.07800
H49         H  0.80572345  0.57272996  0.99679663     0.09000
Cu50       Cu  0.82044130  0.58427072  0.04670317     0.44200
Cu51       Cu  0.82342485  0.61110122  0.01530495     0.42000
Cu52       Cu  0.83491101  0.63688716  0.04597031     0.43900
N53         N  0.82954494  0.60110138  0.06354351    -0.34600
N54         N  0.83434231  0.62042139  0.06314921    -0.28900
C55         C  0.83763534  0.62728335  0.07549960    -0.05000
C56         C  0.83507588  0.61153580  0.08417879     0.07200
C57         C  0.82990039  0.59514096  0.07623648     0.01000
H58         H  0.84101907  0.64270125  0.07798182     0.08700
H59         H  0.82523046  0.58015163  0.07946564     0.07700
N60         N  0.83590784  0.65066808  0.02777975    -0.36100
N61         N  0.83205017  0.64134681  0.01646249    -0.28300
C62         C  0.83416082  0.65459632  0.00656143    -0.03500
C63         C  0.83985671  0.67315536  0.01192020     0.05100
C64         C  0.84048094  0.67001543  0.02542948     0.03200
H65         H  0.83178340  0.65095224  0.99622589     0.08300
H66         H  0.84326474  0.68097519  0.03309003     0.07100
C67         C  0.26360003  0.89173475  0.81013619     0.03200
C68         C  0.23093910  0.89414354  0.80761321    -0.13000
C69         C  0.21991598  0.89707768  0.79471142     0.00700
C70         C  0.24172208  0.89756796  0.78424567    -0.11500
C71         C  0.27440035  0.89543184  0.78664892     0.03200
C72         C  0.28526991  0.89256833  0.79958599    -0.10900
H73         H  0.21405316  0.89409248  0.81571808     0.08700
H74         H  0.23328195  0.89962568  0.77423598     0.06300
H75         H  0.31053275  0.89068000  0.80139665     0.06100
N76         N  0.31344055  0.92202910  0.97296868    -0.27300
N77         N  0.30768966  0.93037822  0.96141770    -0.35100
C78         C  0.29710754  0.94893365  0.96335154     0.01100
C79         C  0.29627189  0.95246172  0.97678789     0.07100
C80         C  0.30698334  0.93512258  0.98257793    -0.06000
H81         H  0.29112146  0.95920339  0.95553789     0.07800
H82         H  0.30959978  0.93217822  0.99301504     0.09000
Cu83       Cu  0.31483612  0.91612630  0.94361978     0.44200
Cu84       Cu  0.32841728  0.89293475  0.97500772     0.42000
Cu85       Cu  0.33543687  0.86431722  0.94456531     0.43900
N86         N  0.32103063  0.89890518  0.92697125    -0.34600
N87         N  0.32837117  0.87989936  0.92720111    -0.28900
C88         C  0.32830279  0.87291907  0.91477311    -0.05000
C89         C  0.32054249  0.88834040  0.90631692     0.07200
C90         C  0.31613474  0.90454832  0.91444405     0.01000
H91         H  0.33205606  0.85756992  0.91220194     0.08700
H92         H  0.30901223  0.91930182  0.91151785     0.07700
N93         N  0.33951811  0.85243226  0.96333700    -0.36100
N94         N  0.33762598  0.86279542  0.97434882    -0.28300
C95         C  0.34007377  0.85042501  0.98470318    -0.03500
C96         C  0.34316506  0.83123448  0.98001174     0.05100
C97         C  0.34298163  0.83321098  0.96639660     0.03200
H98         H  0.33928593  0.85520818  0.99486197     0.08300
H99         H  0.34408610  0.82146344  0.95918202     0.07100
C100        C  0.93768037  0.89518217  0.80168652     0.03200
C101        C  0.91713661  0.89665985  0.79084614    -0.13000
C102        C  0.92893616  0.90147121  0.77825420     0.00700
C103        C  0.96189756  0.90417123  0.77650529    -0.11500
C104        C  0.98263755  0.90258874  0.78728721     0.03200
C105        C  0.97037531  0.89831841  0.79983448    -0.10900
H106        H  0.89183685  0.89426330  0.79224869     0.08700
H107        H  0.97139094  0.90770588  0.76683305     0.06300
H108        H  0.98648850  0.89693257  0.80813174     0.06100
N109        N  0.81164326  0.89551231  0.96011252    -0.27300
N110        N  0.81480376  0.90607128  0.94920009    -0.35100
C111        C  0.80812389  0.92510611  0.95186780     0.01100
C112        C  0.80002472  0.92657065  0.96507391     0.07100
C113        C  0.80256512  0.90750758  0.96999731    -0.06000
H114        H  0.80922716  0.93701535  0.94472939     0.07800
H115        H  0.79913424  0.90278511  0.98010445     0.09000
Cu116      Cu  0.82900468  0.89416068  0.93132240     0.44200
Cu117      Cu  0.82196986  0.86557098  0.96120884     0.42000
Cu118      Cu  0.85039568  0.84212509  0.93122235     0.43900
N119        N  0.84522384  0.87921040  0.91480847    -0.34600
N120        N  0.85335743  0.86031389  0.91476640    -0.28900
C121        C  0.86382870  0.85543848  0.90265226    -0.05000
C122        C  0.86225324  0.87209987  0.89468568     0.07200
C123        C  0.85015133  0.88683467  0.90272408     0.01000
H124        H  0.87178626  0.84080357  0.89987549     0.08700
H125        H  0.84590295  0.90212420  0.90007005     0.07700
N126        N  0.84590705  0.82757393  0.94916032    -0.36100
N127        N  0.83553119  0.83613731  0.96006101    -0.28300
C128        C  0.83491613  0.82268427  0.96984139    -0.03500
C129        C  0.84554539  0.80474926  0.96490812     0.05100
C130        C  0.85215563  0.80843167  0.95172153     0.03200
H131        H  0.82708669  0.82574735  0.97980393     0.08300
H132        H  0.85992959  0.79788567  0.94438131     0.07100
C133        C  0.24461545  0.39704076  0.80819028     0.03200
C134        C  0.22219884  0.39650329  0.79793839    -0.13000
C135        C  0.23207388  0.39677390  0.78466601     0.00700
C136        C  0.26478861  0.39787184  0.78177892    -0.11500
C137        C  0.28744262  0.39785296  0.79189753     0.03200
C138        C  0.27723240  0.39748985  0.80508699    -0.10900
H139        H  0.19708407  0.39540922  0.80032388     0.08700
H140        H  0.27280569  0.39875143  0.77162954     0.06300
H141        H  0.29469782  0.39737467  0.81294658     0.06100
N142        N  0.21278800  0.42659617  0.97270534    -0.27300
N143        N  0.21266822  0.43641312  0.96141790    -0.35100
C144        C  0.21796209  0.45569461  0.96382940     0.01100
C145        C  0.22136410  0.45818733  0.97732457     0.07100
C146        C  0.21810126  0.43935924  0.98259774    -0.06000
H147        H  0.21997378  0.46691293  0.95624904     0.07800
H148        H  0.21949061  0.43519399  0.99289115     0.09000
Cu149      Cu  0.20560048  0.42309954  0.94326960     0.44200
Cu150      Cu  0.20630543  0.39626755  0.97422851     0.42000
Cu151      Cu  0.19213721  0.37010297  0.94367550     0.43900
N152        N  0.19832140  0.40637447  0.92643586    -0.34600
N153        N  0.19346550  0.38705589  0.92650782    -0.28900
C154        C  0.19167525  0.38065440  0.91396284    -0.05000
C155        C  0.19551409  0.39673669  0.90555478     0.07200
C156        C  0.19968114  0.41276713  0.91388688     0.01000
H157        H  0.18946862  0.36526468  0.91122202     0.08700
H158        H  0.20428200  0.42794502  0.91105761     0.07700
N159        N  0.19369792  0.35639924  0.96207891    -0.36100
N160        N  0.19927397  0.36594188  0.97320377    -0.28300
C161        C  0.19999434  0.35285005  0.98321878    -0.03500
C162        C  0.19431645  0.33412572  0.97820723     0.05100
C163        C  0.19055982  0.33698108  0.96474417     0.03200
H164        H  0.20442434  0.35669438  0.99340515     0.08300
H165        H  0.18683620  0.32572595  0.95734060     0.07100
C166        C  0.56926974  0.38049834  0.80248678     0.03200
C167        C  0.58995003  0.38158092  0.79156422    -0.13000
C168        C  0.57777400  0.38358681  0.77872904     0.00700
C169        C  0.54474893  0.38438511  0.77679545    -0.11500
C170        C  0.52382817  0.38324369  0.78755287     0.03200
C171        C  0.53621925  0.38137578  0.80035382    -0.10900
H172        H  0.61546591  0.38048842  0.79298991     0.08700
H173        H  0.53532982  0.38588757  0.76689371     0.06300
H174        H  0.52005755  0.38093705  0.80870287     0.06100
N175        N  0.71383554  0.33490900  0.95706671    -0.27300
N176        N  0.70272940  0.32581782  0.94650595    -0.35100
C177        C  0.70039689  0.30634079  0.94906258     0.01100
C178        C  0.71034750  0.30300260  0.96188861     0.07100
C179        C  0.71853469  0.32147958  0.96668407    -0.06000
H180        H  0.69066682  0.29557663  0.94229677     0.07800
H181        H  0.72678426  0.32496125  0.97651205     0.09000
Cu182      Cu  0.68772345  0.34058817  0.92968756     0.44200
Cu183      Cu  0.72043107  0.36528291  0.95806214     0.42000
Cu184      Cu  0.68544457  0.39431553  0.93170613     0.43900
N185        N  0.66964851  0.35866463  0.91493471    -0.34600
N186        N  0.66788774  0.37815838  0.91578696    -0.28900
C187        C  0.65501989  0.38529819  0.90458823    -0.05000
C188        C  0.64838514  0.36955269  0.89627360     0.07200
C189        C  0.65814469  0.35292169  0.90317687     0.01000
H190        H  0.65189544  0.40087107  0.90247339     0.08700
H191        H  0.65710433  0.33772480  0.89987307     0.07700
N192        N  0.70955287  0.40662560  0.94768389    -0.36100
N193        N  0.72316881  0.39589741  0.95700317    -0.28300
C194        C  0.73791918  0.40799858  0.96553044    -0.03500
C195        C  0.73343817  0.42748683  0.96152084     0.05100
C196        C  0.71500465  0.42590240  0.95015453     0.03200
H197        H  0.75101881  0.40283200  0.97403877     0.08300
H198        H  0.70556126  0.43775980  0.94416740     0.07100
C199        C  0.07943613  0.11799049  0.18512805     0.03200
C200        C  0.04624591  0.11712562  0.18666443    -0.13000
C201        C  0.03250160  0.11514185  0.19923772     0.00700
C202        C  0.05231660  0.11394609  0.21033951    -0.11500
C203        C  0.08557594  0.11451540  0.20890854     0.03200
C204        C  0.09896857  0.11659843  0.19628528    -0.10900
H205        H  0.03105202  0.11821477  0.17805882     0.08700
H206        H  0.04188525  0.11275081  0.22009836     0.06300
H207        H  0.12462695  0.11726580  0.19515147     0.06100
N208        N  0.22783231  0.10986219  0.02947133    -0.27300
N209        N  0.21551412  0.09894525  0.03902549    -0.35100
C210        C  0.22137990  0.07977975  0.03657221     0.01100
C211        C  0.23869880  0.07835855  0.02494339     0.07100
C212        C  0.24216992  0.09783477  0.02071153    -0.06000
H213        H  0.21262448  0.06784685  0.04269187     0.07800
H214        H  0.25395489  0.10294377  0.01183885     0.09000
Cu215      Cu  0.19179097  0.11018188  0.05522704     0.44200
Cu216      Cu  0.22263526  0.14049945  0.02848642     0.42000
Cu217      Cu  0.18188484  0.16279256  0.05653525     0.43900
N218        N  0.17503230  0.12482577  0.07169106    -0.34600
N219        N  0.17161912  0.14422607  0.07226631    -0.28900
C220        C  0.16238537  0.14925465  0.08451929    -0.05000
C221        C  0.16024630  0.13217846  0.09207205     0.07200
C222        C  0.16812893  0.11695866  0.08353451     0.01000
H223        H  0.15841672  0.16428833  0.08777730     0.08700
H224        H  0.16895847  0.10129713  0.08571707     0.07700
N225        N  0.19592418  0.17835078  0.03986982    -0.36100
N226        N  0.21109601  0.17044323  0.02972282    -0.28300
C227        C  0.21647905  0.18465351  0.02064923    -0.03500
C228        C  0.20416060  0.20237163  0.02532943     0.05100
C229        C  0.19120484  0.19770642  0.03751750     0.03200
H230        H  0.22775774  0.18210438  0.01120221     0.08300
H231        H  0.17924092  0.20767510  0.04423700     0.07100
C232        C  0.75240245  0.12807983  0.18151479     0.03200
C233        C  0.78435946  0.12435510  0.18467177    -0.13000
C234        C  0.79447909  0.12396935  0.19783570     0.00700
C235        C  0.77220778  0.12712235  0.20794295    -0.11500
C236        C  0.73996778  0.13059468  0.20497779     0.03200
C237        C  0.73023708  0.13089169  0.19172166    -0.10900
H238        H  0.80148980  0.12176713  0.17684627     0.08700
H239        H  0.77998305  0.12679736  0.21812662     0.06300
H240        H  0.70535963  0.13315056  0.18932594     0.06100
N241        N  0.73035332  0.08270436  0.01761730    -0.27300
N242        N  0.73659177  0.07424194  0.02910948    -0.35100
C243        C  0.74694151  0.05567187  0.02699569     0.01100
C244        C  0.74702860  0.05227351  0.01354649     0.07100
C245        C  0.73618982  0.06965984  0.00791239    -0.06000
H246        H  0.75330947  0.04529715  0.03469575     0.07800
H247        H  0.73319522  0.07270380  0.99750553     0.09000
Cu248      Cu  0.72956246  0.08785988  0.04721788     0.44200
Cu249      Cu  0.71572152  0.11186601  0.01542751     0.42000
Cu250      Cu  0.69856472  0.13746754  0.04567812     0.43900
N251        N  0.71716836  0.10421626  0.06375531    -0.34600
N252        N  0.70447423  0.12204535  0.06307163    -0.28900
C253        C  0.69943862  0.12884865  0.07532195    -0.05000
C254        C  0.70968463  0.11470402  0.08432046     0.07200
C255        C  0.72095441  0.09928368  0.07650992     0.01000
H256        H  0.68981949  0.14334483  0.07741986     0.08700
H257        H  0.73247342  0.08580807  0.07968529     0.07700
N258        N  0.70060227  0.15130970  0.02754675    -0.36100
N259        N  0.70626188  0.14197263  0.01634609    -0.28300
C260        C  0.70727314  0.15531911  0.00648088    -0.03500
C261        C  0.70250951  0.17393262  0.01181376     0.05100
C262        C  0.69825136  0.17081219  0.02517659     0.03200
H263        H  0.71233198  0.15182883  0.99627827     0.08300
H264        H  0.69407455  0.18189520  0.03266716     0.07100
C265        C  0.57526278  0.14199182  0.30359533     0.03200
C266        C  0.59505947  0.14195842  0.29244202    -0.13000
C267        C  0.58217834  0.13962695  0.27976924     0.00700
C268        C  0.54906036  0.13770650  0.27827677    -0.11500
C269        C  0.52890785  0.13763974  0.28935963     0.03200
C270        C  0.54225691  0.13988598  0.30196837    -0.10900
H271        H  0.62062115  0.14330880  0.29365007     0.08700
H272        H  0.53899967  0.13650957  0.26847869     0.06300
H273        H  0.52689538  0.13997458  0.31057432     0.06100
N274        N  0.73294005  0.13822296  0.45799053    -0.27300
N275        N  0.72509886  0.12706213  0.44781972    -0.35100
C276        C  0.73199155  0.10808403  0.45065385     0.01100
C277        C  0.74479198  0.10726943  0.46323297     0.07100
C278        C  0.74527190  0.12668725  0.46753393    -0.06000
H279        H  0.72754643  0.09577531  0.44410976     0.07800
H280        H  0.75270476  0.13193275  0.47712092     0.09000
Cu281      Cu  0.70354962  0.13818441  0.43094656     0.44200
Cu282      Cu  0.72317631  0.16823515  0.45886553     0.42000
Cu283      Cu  0.67601409  0.18914728  0.43207253     0.43900
N284        N  0.68062924  0.15231026  0.41543155    -0.34600
N285        N  0.66993683  0.17070598  0.41587081    -0.28900
C286        C  0.65645272  0.17520437  0.40419801    -0.05000
C287        C  0.65918495  0.15894740  0.39596084     0.07200
C288        C  0.67443681  0.14468345  0.40347639     0.01000
H289        H  0.64616796  0.18943270  0.40177007     0.08700
H290        H  0.68048376  0.12977500  0.40052711     0.07700
N291        N  0.68890884  0.20464911  0.44894170    -0.36100
N292        N  0.70660788  0.19710639  0.45847761    -0.28300
C293        C  0.71137516  0.21096744  0.46774339    -0.03500
C294        C  0.69567986  0.22812792  0.46398423     0.05100
C295        C  0.68187122  0.22353615  0.45194103     0.03200
H296        H  0.72581874  0.20868883  0.47642928     0.08300
H297        H  0.66763892  0.23318752  0.44579350     0.07100
C298        C  0.24696584  0.11696164  0.30926974     0.03200
C299        C  0.27953704  0.11985567  0.30668907    -0.13000
C300        C  0.29153728  0.11942620  0.29374844     0.00700
C301        C  0.27009632  0.11769509  0.28320734    -0.11500
C302        C  0.23723612  0.11597206  0.28557015     0.03200
C303        C  0.22590738  0.11512306  0.29859930    -0.10900
H304        H  0.29568827  0.12250875  0.31481120     0.08700
H305        H  0.27891102  0.11754803  0.27315251     0.06300
H306        H  0.20062922  0.11324418  0.30039792     0.06100
N307        N  0.19049533  0.09013817  0.47288125    -0.27300
N308        N  0.18450335  0.08097692  0.46165876    -0.35100
C309        C  0.18611393  0.06132011  0.46365718     0.01100
C310        C  0.19377311  0.05791545  0.47676991     0.07100
C311        C  0.19604327  0.07657154  0.48231967    -0.06000
H312        H  0.18279081  0.05039693  0.45600677     0.07800
H313        H  0.20284490  0.08006597  0.49233549     0.09000
Cu314      Cu  0.17855867  0.09561674  0.44381697     0.44200
Cu315      Cu  0.19397289  0.12060058  0.47456857     0.42000
Cu316      Cu  0.19334926  0.14850695  0.44404565     0.43900
N317        N  0.18161465  0.11288129  0.42690506    -0.34600
N318        N  0.18811808  0.13198499  0.42696149    -0.28900
C319        C  0.19213699  0.13821969  0.41446368    -0.05000
C320        C  0.18756246  0.12231507  0.40596977     0.07200
C321        C  0.18091628  0.10651610  0.41436714     0.01000
H322        H  0.19946857  0.15307669  0.41198287     0.08700
H323        H  0.17680416  0.09126443  0.41168652     0.07700
N324        N  0.19838229  0.16131208  0.46250470    -0.36100
N325        N  0.19841802  0.15109646  0.47362828    -0.28300
C326        C  0.20204065  0.16360044  0.48379985    -0.03500
C327        C  0.20479261  0.18270617  0.47887957     0.05100
C328        C  0.20210107  0.18060816  0.46530932     0.03200
H329        H  0.20202502  0.15899445  0.49401603     0.08300
H330        H  0.20309565  0.19221941  0.45795796     0.07100
C331        C  0.07240270  0.39136831  0.68475941     0.03200
C332        C  0.03916163  0.39236818  0.68624441    -0.13000
C333        C  0.02523940  0.39515577  0.69873187     0.00700
C334        C  0.04507323  0.39704844  0.70979666    -0.11500
C335        C  0.07829507  0.39552372  0.70852740     0.03200
C336        C  0.09178483  0.39307048  0.69595885    -0.10900
H337        H  0.02406140  0.39062961  0.67766768     0.08700
H338        H  0.03470012  0.39975981  0.71941866     0.06300
H339        H  0.11745731  0.39237745  0.69491644     0.06100
N340        N  0.25918990  0.40130114  0.53557052    -0.27300
N341        N  0.24747527  0.41205226  0.54532373    -0.35100
C342        C  0.25172518  0.43130050  0.54253901     0.01100
C343        C  0.26711523  0.43280972  0.53051202     0.07100
C344        C  0.27151479  0.41348698  0.52635949    -0.06000
H345        H  0.24350946  0.44333582  0.54869038     0.07800
H346        H  0.28136623  0.40866118  0.51703540     0.09000
Cu347      Cu  0.22405123  0.40060389  0.56160588     0.44200
Cu348      Cu  0.25416034  0.37080361  0.53449387     0.42000
Cu349      Cu  0.20621352  0.34887969  0.56070342     0.43900
N350        N  0.19922255  0.38621370  0.57642842    -0.34600
N351        N  0.19212217  0.36719424  0.57598035    -0.28900
C352        C  0.17563183  0.36227412  0.58688766    -0.05000
C353        C  0.17218587  0.37904427  0.59459687     0.07200
C354        C  0.18764477  0.39391440  0.58767462     0.01000
H355        H  0.16749713  0.34746681  0.58915912     0.08700
H356        H  0.19015146  0.40923797  0.59055744     0.07700
N357        N  0.22286884  0.33347445  0.54445995    -0.36100
N358        N  0.24041720  0.34131421  0.53495381    -0.28300
C359        C  0.24545317  0.32757671  0.52559650    -0.03500
C360        C  0.23045328  0.31017874  0.52941491     0.05100
C361        C  0.21637870  0.31457027  0.54143375     0.03200
H362        H  0.25779296  0.33043692  0.51641484     0.08300
H363        H  0.20187674  0.30487031  0.54745961     0.07100
C364        C  0.74426427  0.39930991  0.67933811     0.03200
C365        C  0.72142776  0.39614154  0.68925832    -0.13000
C366        C  0.73076478  0.39270570  0.70237527     0.00700
C367        C  0.76338601  0.39260231  0.70553499    -0.11500
C368        C  0.78632955  0.39580471  0.69570268     0.03200
C369        C  0.77669671  0.39926303  0.68268532    -0.10900
H370        H  0.69635004  0.39603797  0.68673321     0.08700
H371        H  0.77094602  0.39027937  0.71563422     0.06300
H372        H  0.79456108  0.40205741  0.67517036     0.06100
N373        N  0.70661853  0.45277864  0.51679945    -0.27300
N374        N  0.70924115  0.46176258  0.52831946    -0.35100
C375        C  0.71669509  0.48088395  0.52626783     0.01100
C376        C  0.71872316  0.48408759  0.51280165     0.07100
C377        C  0.71196859  0.46598978  0.50711372    -0.06000
H378        H  0.72023185  0.49164093  0.53401296     0.07800
H379        H  0.71181624  0.46254574  0.49669656     0.09000
Cu380      Cu  0.70281234  0.44765155  0.54630046     0.44200
Cu381      Cu  0.69801860  0.42273857  0.51466511     0.42000
Cu382      Cu  0.68497089  0.39541243  0.54488364     0.43900
N383        N  0.69569513  0.43013922  0.56285104    -0.34600
N384        N  0.68897899  0.41106295  0.56232693    -0.28900
C385        C  0.68733277  0.40381531  0.57466927    -0.05000
C386        C  0.69311052  0.41910366  0.58343827     0.07200
C387        C  0.69845876  0.43555164  0.57554544     0.01000
H388        H  0.68369242  0.38835722  0.57700319     0.08700
H389        H  0.70452818  0.45032290  0.57876692     0.07700
N390        N  0.68681113  0.38240774  0.52643653    -0.36100
N391        N  0.69218101  0.39228084  0.51538514    -0.28300
C392        C  0.69428729  0.37936119  0.50534199    -0.03500
C393        C  0.69006324  0.36043166  0.51033872     0.05100
C394        C  0.68511524  0.36298992  0.52372515     0.03200
H395        H  0.69867303  0.38348819  0.49518365     0.08300
H396        H  0.68162369  0.35151407  0.53104636     0.07100
C397        C  0.28167373  0.61790674  0.31019926     0.03200
C398        C  0.30534321  0.61746428  0.30038979    -0.13000
C399        C  0.29726076  0.61944642  0.28701297     0.00700
C400        C  0.26507066  0.62146292  0.28344127    -0.11500
C401        C  0.24121466  0.62172206  0.29313850     0.03200
C402        C  0.24977525  0.62043178  0.30646768    -0.10900
H403        H  0.33003700  0.61530947  0.30314122     0.08700
H404        H  0.25858353  0.62274124  0.27313140     0.06300
H405        H  0.23142897  0.62155673  0.31396790     0.06100
N406        N  0.31271188  0.59051478  0.47504999    -0.27300
N407        N  0.31464857  0.58047134  0.46391366    -0.35100
C408        C  0.31029568  0.56114303  0.46648644     0.01100
C409        C  0.30542380  0.55889541  0.47991932     0.07100
C410        C  0.30738937  0.57782397  0.48504615    -0.06000
H411        H  0.31091771  0.54960673  0.45911279     0.07800
H412        H  0.30442451  0.58211936  0.49524998     0.09000
Cu413      Cu  0.32256212  0.59357176  0.44574887     0.44200
Cu414      Cu  0.31542212  0.62106868  0.47594563     0.42000
Cu415      Cu  0.32604280  0.64730723  0.44496767     0.43900
N416        N  0.32750190  0.60996689  0.42862364    -0.34600
N417        N  0.32816725  0.62952074  0.42825554    -0.28900
C418        C  0.32803157  0.63544077  0.41557691    -0.05000
C419        C  0.32751803  0.61881590  0.40759842     0.07200
C420        C  0.32721276  0.60294244  0.41623217     0.01000
H421        H  0.32716905  0.65072906  0.41240650     0.08700
H422        H  0.32481173  0.58746168  0.41373456     0.07700
N423        N  0.32052446  0.66127940  0.46310604    -0.36100
N424        N  0.31599067  0.65161302  0.47431183    -0.28300
C425        C  0.31201803  0.66472047  0.48413134    -0.03500
C426        C  0.31429059  0.68358134  0.47889710     0.05100
C427        C  0.31993566  0.68084965  0.46555361     0.03200
H428        H  0.30827945  0.66077299  0.49436672     0.08300
H429        H  0.32297397  0.69225004  0.45814607     0.07100
C430        C  0.96035294  0.64546829  0.30431559     0.03200
C431        C  0.93965107  0.64346047  0.29354427    -0.13000
C432        C  0.95159723  0.64028368  0.28081081     0.00700
C433        C  0.98459804  0.63948978  0.27874549    -0.11500
C434        C  0.00570555  0.64179641  0.28934661     0.03200
C435        C  0.99341721  0.64477640  0.30210935    -0.10900
H436        H  0.91411852  0.64439323  0.29503275     0.08700
H437        H  0.99382683  0.63683535  0.26891166     0.06300
H438        H  0.00959360  0.64589204  0.31039062     0.06100
N439        N  0.78580929  0.63793354  0.45521278    -0.27300
N440        N  0.80098401  0.62705862  0.44640323    -0.35100
C441        C  0.79775581  0.60785565  0.44967213     0.01100
C442        C  0.77936091  0.60653068  0.46105985     0.07100
C443        C  0.77242404  0.62599696  0.46427191    -0.06000
H444        H  0.80865778  0.59587041  0.44425354     0.07800
H445        H  0.75854688  0.63118995  0.47257513     0.09000
Cu446      Cu  0.82498195  0.63900125  0.43026996     0.44200
Cu447      Cu  0.78480975  0.66849701  0.45480400     0.42000
Cu448      Cu  0.82048713  0.69241790  0.42643904     0.43900
N449        N  0.84431485  0.65443089  0.41437501    -0.34600
N450        N  0.84164952  0.67379010  0.41277504    -0.28900
C451        C  0.85513868  0.67897951  0.40122674    -0.05000
C452        C  0.86726265  0.66212766  0.39534525     0.07200
C453        C  0.85991795  0.64683238  0.40394080     0.01000
H454        H  0.85612761  0.69393357  0.39741230     0.08700
H455        H  0.86469077  0.63124728  0.40253154     0.07700
N456        N  0.80201788  0.70763105  0.44244567    -0.36100
N457        N  0.78937489  0.69880512  0.45285745    -0.28300
C458        C  0.78208935  0.71251556  0.46194302    -0.03500
C459        C  0.79033762  0.73091907  0.45700237     0.05100
C460        C  0.80296074  0.72724724  0.44460845     0.03200
H461        H  0.77213746  0.70925489  0.47155957     0.08300
H462        H  0.81350412  0.73788668  0.43791338     0.07100
C463        C  0.75807832  0.91424022  0.68037909     0.03200
C464        C  0.78088883  0.91343321  0.69047269    -0.13000
C465        C  0.77141147  0.91253344  0.70378228     0.00700
C466        C  0.73875731  0.91243361  0.70691480    -0.11500
C467        C  0.71578643  0.91315173  0.69691000     0.03200
C468        C  0.72564415  0.91410267  0.68371187    -0.10900
H469        H  0.80598507  0.91337931  0.68796674     0.08700
H470        H  0.73121564  0.91195879  0.71714155     0.06300
H471        H  0.70789557  0.91429096  0.67595736     0.06100
N472        N  0.80289111  0.95039025  0.51598964    -0.27300
N473        N  0.80297091  0.95902422  0.52767225    -0.35100
C474        C  0.80182678  0.97876270  0.52598992     0.01100
C475        C  0.80138610  0.98279642  0.51258897     0.07100
C476        C  0.80206559  0.96441832  0.50655699    -0.06000
H477        H  0.80038825  0.98936876  0.53394608     0.07800
H478        H  0.80005657  0.96141211  0.49611497     0.09000
Cu479      Cu  0.80149570  0.94351012  0.54534150     0.44200
Cu480      Cu  0.79899873  0.92000338  0.51352539     0.42000
Cu481      Cu  0.78097370  0.89169546  0.54324625     0.43900
N482        N  0.79536920  0.92533888  0.56166320    -0.34600
N483        N  0.78688554  0.90654424  0.56092507    -0.28900
C484        C  0.78320147  0.89929029  0.57320219    -0.05000
C485        C  0.78965513  0.91427522  0.58211068     0.07200
C486        C  0.79752483  0.93051532  0.57442302     0.01000
H487        H  0.77642531  0.88420783  0.57543844     0.08700
H488        H  0.80341471  0.94521316  0.57784725     0.07700
N489        N  0.78137483  0.87981369  0.52443165    -0.36100
N490        N  0.78896692  0.88992683  0.51369454    -0.28300
C491        C  0.78933443  0.87755508  0.50333097    -0.03500
C492        C  0.78135131  0.85877867  0.50772458     0.05100
C493        C  0.77652572  0.86078470  0.52116873     0.03200
H494        H  0.79539700  0.88187715  0.49335377     0.08300
H495        H  0.77139193  0.84913258  0.52819145     0.07100
C496        C  0.43152594  0.89684929  0.68591798     0.03200
C497        C  0.41209287  0.89608376  0.69715734    -0.13000
C498        C  0.42543291  0.89733182  0.70977447     0.00700
C499        C  0.45849325  0.89920653  0.71119848    -0.11500
C500        C  0.47822430  0.90013403  0.70002716     0.03200
C501        C  0.46459748  0.89882343  0.68742539    -0.10900
H502        H  0.38656509  0.89425064  0.69612402     0.08700
H503        H  0.46877459  0.90008596  0.72097689     0.06300
H504        H  0.47972572  0.89970414  0.67876266     0.06100
N505        N  0.28375255  0.90562602  0.52996378    -0.27300
N506        N  0.29287105  0.91702978  0.53982219    -0.35100
C507        C  0.28508580  0.93588222  0.53710682     0.01100
C508        C  0.27059387  0.93652011  0.52484067     0.07100
C509        C  0.26998656  0.91698253  0.52066385    -0.06000
H510        H  0.28913664  0.94809431  0.54376454     0.07800
H511        H  0.26045716  0.91141657  0.51148794     0.09000
Cu512      Cu  0.31500346  0.90657721  0.55664682     0.44200
Cu513      Cu  0.29052941  0.87516461  0.52974123     0.42000
Cu514      Cu  0.32512183  0.85352233  0.55917839     0.43900
N515        N  0.33351915  0.89252686  0.57305265    -0.34600
N516        N  0.33601940  0.87309468  0.57416644    -0.28900
C517        C  0.34656982  0.86862231  0.58631430    -0.05000
C518        C  0.35130687  0.88609440  0.59308115     0.07200
C519        C  0.34284706  0.90097169  0.58439603     0.01000
H520        H  0.35047497  0.85375583  0.58995216     0.08700
H521        H  0.34242732  0.91671011  0.58631811     0.07700
N522        N  0.31448623  0.83747762  0.54239303    -0.36100
N523        N  0.30157379  0.84532401  0.53171114    -0.28300
C524        C  0.29799125  0.83108952  0.52259446    -0.03500
C525        C  0.30948971  0.81345617  0.52771384     0.05100
C526        C  0.31963285  0.81808246  0.54033083     0.03200
H527        H  0.28826207  0.83349182  0.51284750     0.08300
H528        H  0.32971956  0.80810648  0.54756112     0.07100
C529        C  0.41745388  0.89525527  0.67257991    -0.19800
C530        C  0.39164323  0.90731903  0.66861353     0.36400
C531        C  0.37914616  0.90521340  0.65585201    -0.25800
C532        C  0.39234602  0.89160328  0.64700832     0.02800
C533        C  0.41810147  0.87962061  0.65089203     0.27600
C534        C  0.43037873  0.88152663  0.66367605    -0.24900
N535        N  0.37883575  0.92197907  0.67740982    -0.82300
H536        H  0.35956309  0.91450645  0.65265990     0.13400
C537        C  0.38033110  0.89080104  0.63339443     0.02800
N538        N  0.43204868  0.86589860  0.64172311    -0.80900
H539        H  0.45009388  0.87224118  0.66673304     0.18200
C540        C  0.39487688  0.90270520  0.62379695    -0.25700
C541        C  0.38557258  0.90157982  0.61053357     0.36300
C542        C  0.36134167  0.88820907  0.60691248    -0.19800
C543        C  0.34652444  0.87649558  0.61658689    -0.25000
C544        C  0.35562241  0.87779493  0.62986946     0.27700
H545        H  0.41389811  0.91263978  0.62666240     0.13400
N546        N  0.40115953  0.91353745  0.60070812    -0.82300
H547        H  0.32765395  0.86642651  0.61376605     0.18300
N548        N  0.33977047  0.86615391  0.63979327    -0.80900
H549        H  0.41833816  0.92262340  0.60504744     0.33900
H550        H  0.41336265  0.90400283  0.59434991     0.38400
H551        H  0.32170161  0.85762394  0.63557116     0.33900
H552        H  0.35636068  0.85621696  0.64369257     0.30600
H553        H  0.45124004  0.85847142  0.64605375     0.33900
H554        H  0.41495045  0.85515229  0.63957511     0.30600
H555        H  0.39672092  0.93241422  0.67913801     0.38400
H556        H  0.35996977  0.92956637  0.67296243     0.33900
C557        C  0.68127180  0.91264140  0.69998622    -0.19800
C558        C  0.66767872  0.89707870  0.70742700     0.36400
C559        C  0.63438299  0.89601127  0.70874374    -0.25800
C560        C  0.61460946  0.91004028  0.70267297     0.02800
C561        C  0.62816614  0.92596301  0.69565345     0.27600
C562        C  0.66141216  0.92715274  0.69443480    -0.24900
N563        N  0.68756892  0.88202734  0.71315128    -0.82300
H564        H  0.62368000  0.88380312  0.71410210     0.13400
C565        C  0.57977455  0.90687863  0.70263894     0.02800
N566        N  0.60806466  0.94047604  0.68945171    -0.80900
H567        H  0.67191794  0.93913871  0.68879188     0.18200
C568        C  0.55980148  0.92010736  0.70934449    -0.25700
C569        C  0.52649414  0.91813200  0.70873915     0.36300
C570        C  0.51313508  0.90246696  0.70138672    -0.19800
C571        C  0.53326397  0.88915758  0.69479897    -0.25000
C572        C  0.56647303  0.89127522  0.69528803     0.27700
H573        H  0.57027617  0.93218158  0.71485149     0.13400
N574        N  0.50622391  0.93222305  0.71525618    -0.82300
H575        H  0.52296178  0.87717090  0.68915087     0.18300
N576        N  0.58679926  0.87787340  0.68817340    -0.80900
H577        H  0.51983123  0.94277960  0.72023665     0.33900
H578        H  0.49350508  0.93982424  0.70797733     0.38400
H579        H  0.57326550  0.86716668  0.68330374     0.33900
H580        H  0.59855392  0.88601994  0.68085490     0.30600
H581        H  0.62181773  0.95127763  0.68472035     0.33900
H582        H  0.59504915  0.93332170  0.68208837     0.30600
H583        H  0.67379860  0.87172358  0.71834494     0.38400
H584        H  0.69847422  0.87433679  0.70542546     0.33900
C585        C  0.76749791  0.91514687  0.66626147    -0.19800
C586        C  0.78887742  0.90132193  0.66066147     0.36400
C587        C  0.79480970  0.90185458  0.64699765    -0.25800
C588        C  0.77944463  0.91568025  0.63889409     0.02800
C589        C  0.75870274  0.92973093  0.64447002     0.27600
C590        C  0.75302761  0.92937792  0.65810824    -0.24900
N591        N  0.80351567  0.88637909  0.66874498    -0.82300
H592        H  0.81061453  0.89105682  0.64256518     0.13400
C593        C  0.78348512  0.91454741  0.62444707     0.02800
N594        N  0.74282954  0.94392011  0.63618135    -0.80900
H595        H  0.73680008  0.94006792  0.66239510     0.18200
C596        C  0.76108975  0.90393198  0.61709017    -0.25700
C597        C  0.76270821  0.90343117  0.60325129     0.36300
C598        C  0.78753235  0.91364169  0.59669562    -0.19800
C599        C  0.81014683  0.92408341  0.60414799    -0.25000
C600        C  0.80836963  0.92462208  0.61798999     0.27700
H601        H  0.74187508  0.89637950  0.62218577     0.13400
N602        N  0.73863689  0.89318998  0.59586726    -0.82300
H603        H  0.82924983  0.93186320  0.59914362     0.18300
N604        N  0.83165295  0.93531935  0.62551800    -0.80900
H605        H  0.72226530  0.88638696  0.60220601     0.33900
H606        H  0.72592714  0.90377785  0.59048495     0.38400
H607        H  0.84862228  0.94172626  0.61927495     0.33900
H608        H  0.81995182  0.94698881  0.63024879     0.30600
H609        H  0.72790282  0.95299933  0.64179149     0.33900
H610        H  0.76025148  0.95313386  0.63207307     0.30600
H611        H  0.78541702  0.87719704  0.67234052     0.38400
H612        H  0.81860002  0.87744351  0.66309388     0.33900
C613        C  0.78896245  0.75000746  0.46409923    -0.19800
C614        C  0.78152164  0.76789416  0.45755526     0.36400
C615        C  0.78101738  0.78564859  0.46474188    -0.25800
C616        C  0.78737973  0.78578453  0.47830840     0.02800
C617        C  0.79481746  0.76798218  0.48485151     0.27600
C618        C  0.79535144  0.75024182  0.47769364    -0.24900
N619        N  0.77372452  0.76791754  0.44375551    -0.82300
H620        H  0.77508814  0.79941478  0.45982010     0.13400
C621        C  0.78568582  0.80465993  0.48561772     0.02800
N622        N  0.80205317  0.76806944  0.49870834    -0.80900
H623        H  0.80137544  0.73658055  0.48271402     0.18200
C624        C  0.76199570  0.80716563  0.49523435    -0.25700
C625        C  0.75964882  0.82484606  0.50243117     0.36300
C626        C  0.78167644  0.84023679  0.49998045    -0.19800
C627        C  0.80508831  0.83775209  0.49019953    -0.25000
C628        C  0.80749788  0.82002692  0.48307270     0.27700
H629        H  0.74515648  0.79530380  0.49703928     0.13400
N630        N  0.73471203  0.82732153  0.51202964    -0.82300
H631        H  0.82217697  0.84945737  0.48837763     0.18300
N632        N  0.83231006  0.81739594  0.47343428    -0.80900
H633        H  0.72068690  0.81456653  0.51265669     0.33900
H634        H  0.71980596  0.83865904  0.50868000     0.38400
H635        H  0.84638342  0.83012006  0.47273664     0.33900
H636        H  0.84720763  0.80606456  0.47680512     0.30600
H637        H  0.80694052  0.75373617  0.50204278     0.33900
H638        H  0.82294822  0.77626395  0.49997268     0.30600
H639        H  0.75265433  0.75985370  0.44262598     0.38400
H640        H  0.76891441  0.78229048  0.44047626     0.33900
C641        C  0.94740859  0.64804546  0.31788009    -0.19800
C642        C  0.92290565  0.63568039  0.32282458     0.36400
C643        C  0.91062226  0.63904456  0.33552780    -0.25800
C644        C  0.92274038  0.65417558  0.34346951     0.02800
C645        C  0.94759760  0.66625394  0.33873611     0.27600
C646        C  0.95969685  0.66308825  0.32596362    -0.24900
N647        N  0.91099851  0.61954681  0.31503767    -0.82300
H648        H  0.89172469  0.62970448  0.33934003     0.13400
C649        C  0.90922915  0.65702138  0.35680687     0.02800
N650        N  0.96053607  0.68155660  0.34696278    -0.80900
H651        H  0.97849241  0.67256525  0.32222447     0.18200
C652        C  0.92317544  0.64725105  0.36754463    -0.25700
C653        C  0.91020375  0.64897297  0.38029426     0.36300
C654        C  0.88268296  0.66063303  0.38224896    -0.19800
C655        C  0.86919686  0.67073908  0.37150884    -0.25000
C656        C  0.88209877  0.66892823  0.35876168     0.27700
H657        H  0.94413797  0.63819924  0.36593294     0.13400
N658        N  0.92506636  0.63916142  0.39127042    -0.82300
H659        H  0.84805506  0.67966425  0.37301966     0.18300
N660        N  0.86739989  0.67872818  0.34773990    -0.80900
H661        H  0.94503134  0.63117663  0.38814325     0.33900
H662        H  0.93339520  0.65009810  0.39767499     0.38400
H663        H  0.84731614  0.68664398  0.35081384     0.33900
H664        H  0.88358902  0.68913537  0.34407396     0.30600
H665        H  0.97900189  0.68895721  0.34207762     0.33900
H666        H  0.94259413  0.69200350  0.34858455     0.30600
H667        H  0.92969176  0.60952168  0.31368614     0.38400
H668        H  0.89302408  0.61195083  0.32010065     0.33900
C669        C  0.31242215  0.70255542  0.48611520    -0.19800
C670        C  0.28883952  0.70594668  0.49581721     0.36400
C671        C  0.28860576  0.72399011  0.50269891    -0.25800
C672        C  0.31141106  0.73863503  0.50005671     0.02800
C673        C  0.33477722  0.73533366  0.49029747     0.27600
C674        C  0.33494114  0.71734785  0.48336850    -0.24900
N675        N  0.26493612  0.69123072  0.49847931    -0.82300
H676        H  0.27058884  0.72669189  0.51015520     0.13400
C677        C  0.31031231  0.75753711  0.50742718     0.02800
N678        N  0.35817858  0.75029250  0.48747294    -0.80900
H679        H  0.35303383  0.71472178  0.47593404     0.18200
C680        C  0.33543539  0.76242249  0.51590638    -0.25700
C681        C  0.33580353  0.78055967  0.52268144     0.36300
C682        C  0.31023975  0.79397033  0.52101563    -0.19800
C683        C  0.28505080  0.78893940  0.51256489    -0.25000
C684        C  0.28483490  0.77087032  0.50574792     0.27700
H685        H  0.35501327  0.75211507  0.51709213     0.13400
N686        N  0.36242958  0.78558038  0.53091270    -0.82300
H687        H  0.26538144  0.79914467  0.51128944     0.18300
N688        N  0.25904871  0.76607414  0.49701072    -0.80900
H689        H  0.37902609  0.77404149  0.53112068     0.33900
H690        H  0.37392713  0.79770270  0.52659440     0.38400
H691        H  0.24208852  0.77740944  0.49693292     0.33900
H692        H  0.26836565  0.76527366  0.48745231     0.30600
H693        H  0.37384496  0.74549596  0.48010934     0.33900
H694        H  0.34619145  0.76260006  0.48366672     0.30600
H695        H  0.25121784  0.68965836  0.48994773     0.38400
H696        H  0.24945533  0.69602338  0.50590868     0.33900
C697        C  0.04054747  0.63982833  0.28722614    -0.19800
C698        C  0.06206833  0.65426871  0.29184027     0.36400
C699        C  0.09500084  0.65094204  0.29065769    -0.25800
C700        C  0.10679531  0.63362822  0.28479045     0.02800
C701        C  0.08530363  0.61966667  0.27957908     0.27600
C702        C  0.05237191  0.62288559  0.28088004    -0.24900
N703        N  0.05037397  0.67216496  0.29776884    -0.82300
H704        H  0.11158406  0.66163780  0.29465666     0.13400
C705        C  0.14151877  0.62957217  0.28529076     0.02800
N706        N  0.09707669  0.60215860  0.27318193    -0.80900
H707        H  0.03583652  0.61186724  0.27725216     0.18200
C708        C  0.15215759  0.61283048  0.29219453    -0.25700
C709        C  0.18474704  0.60952196  0.29429296     0.36300
C710        C  0.20713751  0.62340277  0.28954300    -0.19800
C711        C  0.19665572  0.63963405  0.28205455    -0.25000
C712        C  0.16396149  0.64285398  0.27986709     0.27700
H713        H  0.13487337  0.60262442  0.29631905     0.13400
N714        N  0.19525224  0.59229265  0.30141306    -0.82300
H715        H  0.21393936  0.65016495  0.27831612     0.18300
N716        N  0.15337306  0.65969341  0.27238056    -0.80900
H717        H  0.17580413  0.58362151  0.30429948     0.33900
H718        H  0.20879767  0.58369131  0.29493279     0.38400
H719        H  0.17284039  0.66805282  0.26913322     0.33900
H720        H  0.14200500  0.65437606  0.26393558     0.30600
H721        H  0.07818158  0.59333477  0.26995888     0.33900
H722        H  0.10950096  0.60665520  0.26474422     0.30600
H723        H  0.03787755  0.67997875  0.29052244     0.38400
H724        H  0.06929807  0.68120639  0.30067519     0.33900
C725        C  0.29021495  0.61634084  0.32438010    -0.19800
C726        C  0.27303831  0.60391705  0.33312048     0.36400
C727        C  0.28013051  0.60425449  0.34665693    -0.25800
C728        C  0.30452344  0.61629873  0.35152314     0.02800
C729        C  0.32278486  0.62790152  0.34278683     0.27600
C730        C  0.31532883  0.62790521  0.32929174    -0.24900
N731        N  0.24869163  0.59092330  0.32821024    -0.82300
H732        H  0.26660241  0.59513607  0.35346323     0.13400
C733        C  0.31032451  0.61696217  0.36586296     0.02800
N734        N  0.34890358  0.63952175  0.34766487    -0.80900
H735        H  0.32868821  0.63733784  0.32262570     0.18200
C736        C  0.33127827  0.60330200  0.37157719    -0.25700
C737        C  0.33768467  0.60374640  0.38518347     0.36300
C738        C  0.32273481  0.61818370  0.39314490    -0.19800
C739        C  0.30179573  0.63184827  0.38733482    -0.25000
C740        C  0.29520440  0.63126563  0.37377497     0.27700
H741        H  0.34275368  0.59236428  0.36537296     0.13400
N742        N  0.35959889  0.58981455  0.39088776    -0.82300
H743        H  0.28990735  0.64271511  0.39345362     0.18300
N744        N  0.27262734  0.64478331  0.36805065    -0.80900
H745        H  0.36831302  0.58014466  0.38369361     0.33900
H746        H  0.37916096  0.59779690  0.39437889     0.38400
H747        H  0.26304927  0.65406525  0.37528423     0.33900
H748        H  0.28488153  0.65391303  0.36143838     0.30600
H749        H  0.36033845  0.64690020  0.33991275     0.33900
H750        H  0.33958681  0.65045379  0.35384013     0.30600
H751        H  0.25967857  0.58069174  0.32195742     0.38400
H752        H  0.23840477  0.58281337  0.33591385     0.33900
C753        C  0.72686734  0.50263822  0.50580875    -0.19800
C754        C  0.75233318  0.51475686  0.50993010     0.36400
C755        C  0.75983641  0.53185882  0.50264071    -0.25800
C756        C  0.74218769  0.53722092  0.49143188     0.02800
C757        C  0.71630985  0.52527923  0.48749223     0.27600
C758        C  0.70925547  0.50796279  0.49460893    -0.24900
N759        N  0.77104729  0.50937776  0.52124588    -0.82300
H760        H  0.77995928  0.54086602  0.50556170     0.13400
C761        C  0.75153976  0.55509610  0.48374303     0.02800
N762        N  0.69715075  0.53088149  0.47635076    -0.80900
H763        H  0.68956111  0.49870998  0.49152678     0.18200
C764        C  0.75743592  0.55336643  0.47016336    -0.25700
C765        C  0.76586338  0.56989461  0.46246750     0.36300
C766        C  0.76981070  0.58852421  0.46859395    -0.19800
C767        C  0.76415053  0.59014851  0.48223378    -0.25000
C768        C  0.75471448  0.57373406  0.48982609     0.27700
H769        H  0.75514980  0.53902036  0.46551112     0.13400
N770        N  0.76958522  0.56781781  0.44844411    -0.82300
H771        H  0.76715110  0.60429500  0.48705778     0.18300
N772        N  0.74805943  0.57595906  0.50366535    -0.80900
H773        H  0.76612552  0.55312584  0.44557208     0.33900
H774        H  0.75154347  0.57608590  0.44394958     0.38400
H775        H  0.75166539  0.59059306  0.50663159     0.33900
H776        H  0.72387588  0.57292572  0.50511326     0.30600
H777        H  0.67913316  0.52048812  0.47473781     0.33900
H778        H  0.68583623  0.54420957  0.47868390     0.30600
H779        H  0.78280222  0.49614373  0.51904546     0.38400
H780        H  0.78873411  0.51993885  0.52298793     0.33900
C781        C  0.69658654  0.41778853  0.59797995    -0.19800
C782        C  0.67854221  0.40429750  0.60563549     0.36400
C783        C  0.68450402  0.40263718  0.61923664    -0.25800
C784        C  0.70778079  0.41429714  0.62530755     0.02800
C785        C  0.72510914  0.42817438  0.61782001     0.27600
C786        C  0.71923113  0.42985638  0.60423429    -0.24900
N787        N  0.65424844  0.39238117  0.59962158    -0.82300
H788        H  0.67137032  0.39197443  0.62511211     0.13400
C789        C  0.71600185  0.41046208  0.63922831     0.02800
N790        N  0.74950826  0.43988686  0.62395416    -0.80900
H791        H  0.73325642  0.44015084  0.59843756     0.18200
C792        C  0.73893322  0.39600513  0.64198298    -0.25700
C793        C  0.74798989  0.39182270  0.65500830     0.36300
C794        C  0.73427091  0.40269179  0.66547122    -0.19800
C795        C  0.71080744  0.41695813  0.66267938    -0.25000
C796        C  0.70142137  0.42090236  0.64961923     0.27700
H797        H  0.74963588  0.38787319  0.63390379     0.13400
N798        N  0.77067159  0.37637778  0.65766645    -0.82300
H799        H  0.70009653  0.42520205  0.67070104     0.18300
N800        N  0.67693029  0.43520099  0.64687456    -0.80900
H801        H  0.77844805  0.36984953  0.64889024     0.33900
H802        H  0.75890258  0.36533521  0.66302693     0.38400
H803        H  0.66827981  0.44132357  0.65564278     0.33900
H804        H  0.68723036  0.44680562  0.64154033     0.30600
H805        H  0.76062052  0.44903757  0.61700423     0.33900
H806        H  0.73848173  0.44925350  0.63076334     0.30600
H807        H  0.63653226  0.40194136  0.59616397     0.38400
H808        H  0.64343777  0.38315763  0.60661358     0.33900
C809        C  0.27376530  0.45123571  0.52312334    -0.19800
C810        C  0.30248953  0.45398332  0.51607802     0.36400
C811        C  0.30752928  0.47181275  0.50920271    -0.25800
C812        C  0.28441828  0.48677772  0.50926646     0.02800
C813        C  0.25582290  0.48409839  0.51630853     0.27600
C814        C  0.25081323  0.46635870  0.52321886    -0.24900
N815        N  0.32657301  0.43885830  0.51611770    -0.82300
H816        H  0.32949848  0.47409279  0.50377218     0.13400
C817        C  0.29022137  0.50519771  0.50180230     0.02800
N818        N  0.23196709  0.49937136  0.51631220    -0.80900
H819        H  0.22869148  0.46421402  0.52856182     0.18200
C820        C  0.27577723  0.50766756  0.48947674    -0.25700
C821        C  0.28011691  0.52514876  0.48217113     0.36300
C822        C  0.29960026  0.54033323  0.48731159    -0.19800
C823        C  0.31372418  0.53785813  0.49975636    -0.25000
C824        C  0.30922766  0.52038950  0.50706167     0.27700
H825        H  0.26083649  0.49595823  0.48562664     0.13400
N826        N  0.26420409  0.52769637  0.46974056    -0.82300
H827        H  0.32860534  0.54950047  0.50372268     0.18300
N828        N  0.32388145  0.51795245  0.51976665    -0.80900
H829        H  0.25094836  0.51509990  0.46738185     0.33900
H830        H  0.24788792  0.53927854  0.47082163     0.38400
H831        H  0.33734777  0.53044078  0.52216680     0.33900
H832        H  0.30565948  0.51700004  0.52679142     0.30600
H833        H  0.21211447  0.49497625  0.52183802     0.33900
H834        H  0.24157436  0.51168982  0.52108466     0.30600
H835        H  0.33475001  0.43735932  0.52580349     0.38400
H836        H  0.34616645  0.44321112  0.51042178     0.33900
C837        C  0.82064964  0.39541459  0.69881655    -0.19800
C838        C  0.83618162  0.41227079  0.70382079     0.36400
C839        C  0.86959578  0.41224545  0.70489953    -0.25800
C840        C  0.88745165  0.39557148  0.70124487     0.02800
C841        C  0.87173125  0.37842144  0.69677826     0.27600
C842        C  0.83839442  0.37854207  0.69556605    -0.24900
N843        N  0.81804568  0.42954438  0.70728234    -0.82300
H844        H  0.88185391  0.42535481  0.70834566     0.13400
C845        C  0.92269668  0.39662335  0.70122034     0.02800
N846        N  0.88979779  0.36118566  0.69315032    -0.80900
H847        H  0.82622387  0.36565811  0.69171038     0.18200
C848        C  0.94009816  0.38517010  0.71021299    -0.25700
C849        C  0.97358096  0.38455179  0.70970134     0.36300
C850        C  0.98994381  0.39593545  0.70010154    -0.19800
C851        C  0.97233484  0.40770061  0.69129002    -0.25000
C852        C  0.93888617  0.40801225  0.69167417     0.27700
H853        H  0.92740865  0.37630902  0.71743325     0.13400
N854        N  0.99088082  0.37194792  0.71861072    -0.82300
H855        H  0.98475597  0.41650401  0.68396054     0.18300
N856        N  0.92121461  0.41951944  0.68224506    -0.80900
H857        H  0.97530622  0.36466644  0.72505717     0.33900
H858        H  0.00206656  0.36099860  0.71299222     0.38400
H859        H  0.93667679  0.42709124  0.67590320     0.33900
H860        H  0.90828008  0.40967473  0.67638663     0.30600
H861        H  0.87463061  0.34979807  0.69013979     0.33900
H862        H  0.90378990  0.36491334  0.68496703     0.30600
H863        H  0.80347292  0.42578436  0.71527904     0.38400
H864        H  0.83313492  0.44081268  0.71055430     0.33900
C865        C  0.15674018  0.38067163  0.60770486    -0.19800
C866        C  0.12858173  0.37015327  0.61081314     0.36400
C867        C  0.11520659  0.37194180  0.62348075    -0.25800
C868        C  0.12926258  0.38410000  0.63299338     0.02800
C869        C  0.15716333  0.39470738  0.62992283     0.27600
C870        C  0.17058694  0.39294818  0.61727477    -0.24900
N871        N  0.11329454  0.35806272  0.60104958    -0.82300
H872        H  0.09359066  0.36396735  0.62594343     0.13400
C873        C  0.11425390  0.38579967  0.64612704     0.02800
N874        N  0.17191581  0.40698916  0.63972744    -0.80900
H875        H  0.19224139  0.40095811  0.61494499     0.18200
C876        C  0.12441994  0.37335566  0.65634617    -0.25700
C877        C  0.11071804  0.37459413  0.66898581     0.36300
C878        C  0.08680273  0.38888502  0.67145342    -0.19800
C879        C  0.07648789  0.40116035  0.66109631    -0.25000
C880        C  0.08995840  0.39972480  0.64844010     0.27700
H881        H  0.14292092  0.36255365  0.65439632     0.13400
N882        N  0.12060899  0.36121128  0.67923598    -0.82300
H883        H  0.05817832  0.41212010  0.66294931     0.18300
N884        N  0.07901803  0.41225410  0.63789916    -0.80900
H885        H  0.13837791  0.35166799  0.67579527     0.33900
H886        H  0.10102541  0.35237610  0.68169617     0.38400
H887        H  0.06069103  0.42150660  0.64118459     0.33900
H888        H  0.09788985  0.42147909  0.63514393     0.30600
H889        H  0.19256646  0.41356217  0.63595246     0.33900
H890        H  0.15616878  0.41851741  0.64191338     0.30600
H891        H  0.10548093  0.36742381  0.59349218     0.38400
H892        H  0.09297857  0.35127522  0.60496842     0.33900
C893        C  0.25760397  0.95408856  0.51782850    -0.19800
C894        C  0.27130427  0.97311121  0.51921792     0.36400
C895        C  0.25760151  0.98930082  0.51261480    -0.25800
C896        C  0.23109621  0.98684081  0.50442717     0.02800
C897        C  0.21758711  0.96795521  0.50286259     0.27600
C898        C  0.23097714  0.95174259  0.50957432    -0.24900
N899        N  0.29957749  0.97589204  0.52696938    -0.82300
H900        H  0.26807187  0.00388229  0.51358906     0.13400
C901        C  0.21871532  0.00418087  0.49714739     0.02800
N902        N  0.19033569  0.96537851  0.49448143    -0.80900
H903        H  0.22026407  0.93726462  0.50848823     0.18200
C904        C  0.22591155  0.00619666  0.48372271    -0.25700
C905        C  0.21761322  0.02343869  0.47674817     0.36300
C906        C  0.20125179  0.03883466  0.48335805    -0.19800
C907        C  0.19331010  0.03644947  0.49674816    -0.25000
C908        C  0.20178651  0.01921964  0.50369439     0.27700
H909        H  0.23914150  0.99456064  0.47881354     0.13400
N910        N  0.22703223  0.02564995  0.46318474    -0.82300
H911        H  0.18056794  0.04812215  0.50182668     0.18300
N912        N  0.19365917  0.01697600  0.51739846    -0.80900
H913        H  0.23855726  0.01289766  0.45981724     0.33900
H914        H  0.24377765  0.03708026  0.46272004     0.38400
H915        H  0.18128993  0.02940645  0.52077983     0.33900
H916        H  0.17799044  0.00500037  0.51818497     0.30600
H917        H  0.18333401  0.95053385  0.49433232     0.33900
H918        H  0.17144985  0.97331858  0.49863895     0.30600
H919        H  0.31803504  0.96811114  0.52236973     0.38400
H920        H  0.30636350  0.99077711  0.52701877     0.33900
C921        C  0.20881694  0.20146778  0.48635980    -0.19800
C922        C  0.22405599  0.20204843  0.49881405     0.36400
C923        C  0.22624115  0.22009709  0.50560311    -0.25800
C924        C  0.21449342  0.23760750  0.50007500     0.02800
C925        C  0.20018150  0.23729581  0.48754976     0.27600
C926        C  0.19730758  0.21921284  0.48084535    -0.24900
N927        N  0.23811078  0.18453976  0.50438505    -0.82300
H928        H  0.23769629  0.22062668  0.51516806     0.13400
C929        C  0.21814441  0.25626870  0.50744471     0.02800
N930        N  0.18910782  0.25538009  0.48162479    -0.80900
H931        H  0.18570076  0.21900432  0.47132181     0.18200
C932        C  0.24601620  0.26737781  0.50580348    -0.25700
C933        C  0.25097368  0.28485407  0.51300871     0.36300
C934        C  0.22709747  0.29152017  0.52182133    -0.19800
C935        C  0.19926534  0.28016838  0.52345811    -0.25000
C936        C  0.19462322  0.26256376  0.51639822     0.27700
H937        H  0.26417819  0.26216813  0.49903340     0.13400
N938        N  0.28045525  0.29547887  0.51164428    -0.82300
H939        H  0.18080572  0.28513206  0.53015274     0.18300
N940        N  0.16640339  0.25087576  0.51842995    -0.80900
H941        H  0.29529237  0.28862823  0.50472462     0.33900
H942        H  0.29225861  0.29470306  0.52070211     0.38400
H943        H  0.15172478  0.25737333  0.52555143     0.33900
H944        H  0.15349398  0.25089578  0.50962615     0.30600
H945        H  0.17973029  0.25266284  0.47225842     0.33900
H946        H  0.17034201  0.26076431  0.48738317     0.30600
H947        H  0.25693134  0.18032698  0.49822726     0.38400
H948        H  0.24806713  0.18753563  0.51361336     0.33900
C949        C  0.19214788  0.12147393  0.39131604    -0.19800
C950        C  0.19295353  0.13864867  0.38324212     0.36400
C951        C  0.20000929  0.13686147  0.36971886    -0.25800
C952        C  0.20470676  0.11831726  0.36384435     0.02800
C953        C  0.20205662  0.10112570  0.37167354     0.27600
C954        C  0.19640266  0.10290059  0.38527869    -0.24900
N955        N  0.18630555  0.15784400  0.38864213    -0.82300
H956        H  0.20206656  0.15008777  0.36371728     0.13400
C957        C  0.21389944  0.11718597  0.34965513     0.02800
N958        N  0.20520063  0.08188732  0.36577343    -0.80900
H959        H  0.19573091  0.08953938  0.39114362     0.18200
C960        C  0.24113712  0.10637878  0.34609719    -0.25700
C961        C  0.25133383  0.10527497  0.33292927     0.36300
C962        C  0.23507558  0.11621319  0.32312312    -0.19800
C963        C  0.20748825  0.12679036  0.32663725    -0.25000
C964        C  0.19641169  0.12709362  0.33974843     0.27700
H965        H  0.25463258  0.09876811  0.35366382     0.13400
N966        N  0.27793716  0.09289816  0.32947225    -0.82300
H967        H  0.19471745  0.13505564  0.31916078     0.18300
N968        N  0.16748887  0.13738160  0.34303750    -0.80900
H969        H  0.28717669  0.08585318  0.33782200     0.33900
H970        H  0.26945748  0.08174057  0.32327438     0.38400
H971        H  0.15752249  0.14388296  0.33463495     0.33900
H972        H  0.15110231  0.12686041  0.34640576     0.30600
H973        H  0.20281190  0.07074081  0.37287626     0.33900
H974        H  0.18632262  0.08013147  0.35916754     0.30600
H975        H  0.16247862  0.15787860  0.39167227     0.38400
H976        H  0.18842885  0.16883968  0.38141831     0.33900
C977        C  0.75400979  0.08947243  0.47088571    -0.19800
C978        C  0.73477701  0.07231735  0.47102728     0.36400
C979        C  0.74435039  0.05581325  0.47849231    -0.37000
C980        C  0.77263975  0.05612732  0.48579023     0.02800
C981        C  0.79180249  0.07322227  0.48574217     0.27600
C982        C  0.78217392  0.08981871  0.47834636    -0.24900
N983        N  0.70531549  0.07184308  0.46383039    -0.82300
H984        H  0.72970921  0.04260719  0.47864735     0.13400
C985        C  0.78189597  0.03823715  0.49330121     0.02800
N986        N  0.82099065  0.07356419  0.49312424    -0.80900
H987        H  0.79688371  0.10299203  0.47825979     0.18200
C988        C  0.80426255  0.02519300  0.48786205    -0.25700
C989        C  0.81173824  0.00723626  0.49418283     0.36300
C990        C  0.79635551  0.00226825  0.50614927    -0.19800
C991        C  0.77483712  0.01574888  0.51181217    -0.25000
C992        C  0.76736781  0.03367835  0.50546641     0.27700
H993        H  0.81549945  0.02892128  0.47854747     0.13400
N994        N  0.83494409  0.99408846  0.48853177    -0.82300
H995        H  0.76304056  0.01200573  0.52100058     0.18300
N996        N  0.74462790  0.04710697  0.51115350    -0.80900
H997        H  0.84393439  0.99991083  0.47971342     0.33900
H998        H  0.85411406  0.99324725  0.49507938     0.38400
H999        H  0.73583187  0.04147813  0.52006283     0.33900
H1000       H  0.75668719  0.06018804  0.51343145     0.30600
H1001       H  0.83249918  0.08717127  0.49194227     0.33900
H1002       H  0.81508779  0.07235567  0.50312094     0.30600
H1003       H  0.69007506  0.08231663  0.46805462     0.38400
H1004       H  0.69416457  0.05810271  0.46491824     0.33900
C1005       C  0.69471777  0.24747192  0.47096187    -0.19800
C1006       C  0.69682522  0.24883761  0.48486653     0.36400
C1007       C  0.69668568  0.26754900  0.49088127    -0.25800
C1008       C  0.69319577  0.28491666  0.48342119     0.02800
C1009       C  0.69045311  0.28359166  0.46958698     0.27600
C1010       C  0.69153842  0.26493141  0.46351093    -0.24900
N1011       N  0.69822473  0.23130372  0.49289586    -0.82300
H1012       H  0.69889745  0.26860627  0.50150460     0.13400
C1013       C  0.69204279  0.30433984  0.49027442     0.02800
N1014       N  0.68625241  0.30118512  0.46177663    -0.80900
H1015       H  0.68998231  0.26407159  0.45286854     0.18200
C1016       C  0.71358208  0.31929099  0.48664707    -0.25700
C1017       C  0.71339512  0.33777661  0.49298299     0.36300
C1018       C  0.69116467  0.34135377  0.50318756    -0.19800
C1019       C  0.66989836  0.32631340  0.50690676    -0.25000
C1020       C  0.66986109  0.30793139  0.50047988     0.27700
H1021       H  0.73095828  0.31638954  0.47896988     0.13400
N1022       N  0.73624730  0.35266121  0.48932972    -0.82300
H1023       H  0.65278923  0.32905419  0.51471131     0.18300
N1024       N  0.64714542  0.29297389  0.50416741    -0.80900
H1025       H  0.75071793  0.34769576  0.48160823     0.33900
H1026       H  0.75121492  0.35489591  0.49742190     0.38400
H1027       H  0.63263673  0.29791705  0.51188513     0.33900
H1028       H  0.63221444  0.29062659  0.49608124     0.30600
H1029       H  0.68478426  0.29767722  0.45175748     0.33900
H1030       H  0.66435389  0.30743671  0.46440208     0.30600
H1031       H  0.67663883  0.22379328  0.49175248     0.38400
H1032       H  0.69993743  0.23494790  0.50288968     0.33900
C1033       C  0.49383264  0.13541936  0.28794520    -0.19800
C1034       C  0.48022597  0.12004005  0.28036808     0.36400
C1035       C  0.44686954  0.11802080  0.27993251    -0.25800
C1036       C  0.42706071  0.13076095  0.28711648     0.02800
C1037       C  0.44051223  0.14603636  0.29469967     0.27600
C1038       C  0.47372464  0.14835620  0.29490895    -0.24900
N1039       N  0.50025818  0.10611977  0.27356602    -0.82300
H1040       H  0.43626339  0.10607338  0.27434593     0.13400
C1041       C  0.39247835  0.12681341  0.28775495     0.02800
N1042       N  0.42044663  0.15855588  0.30261570    -0.80900
H1043       H  0.48404637  0.16015097  0.30072270     0.18200
C1044       C  0.38130141  0.11327942  0.29714687    -0.25700
C1045       C  0.34853787  0.11002923  0.29888798     0.36300
C1046       C  0.32644344  0.12106758  0.29132996    -0.19800
C1047       C  0.33784995  0.13404795  0.28152776    -0.25000
C1048       C  0.37073881  0.13690331  0.27959073     0.27700
H1049       H  0.39829660  0.10532681  0.30320520     0.13400
N1050       N  0.33764750  0.09548260  0.30823936    -0.82300
H1051       H  0.32107274  0.14233579  0.27557649     0.18300
N1052       N  0.38213894  0.14980863  0.26931852    -0.80900
H1053       H  0.35691111  0.08873635  0.31298652     0.33900
H1054       H  0.32595239  0.08438211  0.30296749     0.38400
H1055       H  0.36304940  0.15577435  0.26402609     0.33900
H1056       H  0.39380529  0.16171366  0.27373959     0.30600
H1057       H  0.43416943  0.16864442  0.30795696     0.33900
H1058       H  0.40622091  0.16692150  0.29626202     0.30600
H1059       H  0.51312682  0.09826311  0.28067857     0.38400
H1060       H  0.48648854  0.09574860  0.26849082     0.33900
C1061       C  0.64834043  0.15725322  0.38208846    -0.19800
C1062       C  0.66661895  0.14709645  0.37251526     0.36400
C1063       C  0.65489110  0.14525479  0.35959782    -0.25800
C1064       C  0.62550791  0.15346512  0.35605720     0.02800
C1065       C  0.60743508  0.16387222  0.36548195     0.27600
C1066       C  0.61912678  0.16577213  0.37841165    -0.24900
N1067       N  0.69721148  0.13897251  0.37586543    -0.82300
H1068       H  0.66864742  0.13735248  0.35224043     0.13400
C1069       C  0.61347419  0.15051615  0.34251351     0.02800
N1070       N  0.57700947  0.17206011  0.36193329    -0.80900
H1071       H  0.60506141  0.17354712  0.38572417     0.18200
C1072       C  0.59392754  0.13419931  0.33992998    -0.25700
C1073       C  0.58180952  0.13085892  0.32722100     0.36300
C1074       C  0.58901278  0.14435269  0.31697467    -0.19800
C1075       C  0.60921007  0.16046240  0.31954246    -0.25000
C1076       C  0.62152950  0.16368190  0.33224677     0.27700
H1077       H  0.58827748  0.12400445  0.34786493     0.13400
N1078       N  0.56256540  0.11371224  0.32463110    -0.82300
H1079       H  0.61488459  0.17074552  0.31166263     0.18300
N1080       N  0.64225346  0.18016804  0.33477377    -0.80900
H1081       H  0.55952964  0.10530267  0.33321088     0.33900
H1082       H  0.57504271  0.10482135  0.31795355     0.38400
H1083       H  0.64615192  0.18829115  0.32612716     0.33900
H1084       H  0.63055435  0.18962889  0.34133154     0.30600
H1085       H  0.56646821  0.17899204  0.37005463     0.33900
H1086       H  0.58095903  0.18309540  0.35487572     0.30600
H1087       H  0.71221276  0.15078545  0.37822981     0.38400
H1088       H  0.70742780  0.13189497  0.36772796     0.33900
C1089       C  0.71636477  0.13307446  0.21579182    -0.19800
C1090       C  0.69351797  0.14847609  0.21567340     0.36400
C1091       C  0.67112829  0.14973421  0.22597454    -0.25800
C1092       C  0.67152873  0.13617060  0.23644894     0.02800
C1093       C  0.69479256  0.12116539  0.23678177     0.27600
C1094       C  0.71677831  0.11965239  0.22639451    -0.24900
N1095       N  0.69340560  0.16290850  0.20523013    -0.82300
H1096       H  0.65332213  0.16134997  0.22588253     0.13400
C1097       C  0.64757596  0.13781078  0.24711028     0.02800
N1098       N  0.69600435  0.10758903  0.24771215    -0.80900
H1099       H  0.73419811  0.10781878  0.22652181     0.18200
C1100       C  0.62510652  0.12265453  0.24874675    -0.25700
C1101       C  0.60317697  0.12304733  0.25923018     0.36300
C1102       C  0.60364699  0.13906798  0.26815214    -0.19800
C1103       C  0.62583038  0.15439414  0.26634153    -0.25000
C1104       C  0.64788991  0.15389963  0.25591206     0.27700
H1105       H  0.62511735  0.11031609  0.24193650     0.13400
N1106       N  0.58104252  0.10702963  0.26104459    -0.82300
H1107       H  0.62611521  0.16668127  0.27318971     0.18300
N1108       N  0.67095984  0.16945168  0.25434062    -0.80900
H1109       H  0.58377263  0.09647734  0.25359999     0.33900
H1110       H  0.58671431  0.09997551  0.26992468     0.38400
H1111       H  0.66789386  0.18023867  0.26161235     0.33900
H1112       H  0.69351700  0.16328650  0.25583866     0.30600
H1113       H  0.71448678  0.09738799  0.24643830     0.33900
H1114       H  0.70151556  0.11575315  0.25615347     0.30600
H1115       H  0.71477203  0.17080671  0.20577870     0.38400
H1116       H  0.67502619  0.17315155  0.20660851     0.33900
C1117       C  0.74210851  0.12829951  0.16753041    -0.19800
C1118       C  0.75856652  0.13954605  0.15793228     0.36400
C1119       C  0.75002066  0.13780538  0.14460711    -0.25800
C1120       C  0.72482696  0.12549984  0.14072182     0.02800
C1121       C  0.70723044  0.11513210  0.15038751     0.27600
C1122       C  0.71621324  0.11652104  0.16368960    -0.24900
N1123       N  0.78391197  0.15263031  0.16175646    -0.82300
H1124       H  0.76346253  0.14579729  0.13717340     0.13400
C1125       C  0.71839874  0.12281276  0.12644662     0.02800
N1126       N  0.68052798  0.10310427  0.14662112    -0.80900
H1127       H  0.70342700  0.10800686  0.17106200     0.18200
C1128       C  0.71921993  0.10370603  0.12111344    -0.25700
C1129       C  0.71499047  0.10048700  0.10754472     0.36300
C1130       C  0.71132744  0.11690132  0.09895770    -0.19800
C1131       C  0.70984496  0.13602076  0.10444795    -0.25000
C1132       C  0.71285547  0.13910109  0.11807932     0.27700
H1133       H  0.72338488  0.09119995  0.12759450     0.13400
N1134       N  0.71405997  0.08059911  0.10259238    -0.82300
H1135       H  0.70685495  0.14878891  0.09813021     0.18300
N1136       N  0.71045005  0.15871376  0.12346546    -0.80900
H1137       H  0.71755791  0.07034600  0.11019440     0.33900
H1138       H  0.69111650  0.07812856  0.09895539     0.38400
H1139       H  0.70640202  0.16909600  0.11599147     0.33900
H1140       H  0.69041361  0.15902479  0.12961053     0.30600
H1141       H  0.67024730  0.09638796  0.15489838     0.33900
H1142       H  0.66323462  0.11250530  0.14263627     0.30600
H1143       H  0.77399811  0.16365934  0.16770827     0.38400
H1144       H  0.79357110  0.15976908  0.15350769     0.33900
C1145       C  0.10640776  0.11363275  0.22064413    -0.19800
C1146       C  0.13123755  0.09966185  0.22156668     0.36400
C1147       C  0.15141207  0.09977437  0.23255857    -0.25800
C1148       C  0.14722676  0.11367463  0.24264136     0.02800
C1149       C  0.12204927  0.12743341  0.24191554     0.27600
C1150       C  0.10179088  0.12726216  0.23090231    -0.24900
N1151       N  0.13578406  0.08521319  0.21142089    -0.82300
H1152       H  0.17069337  0.08913827  0.23315270     0.13400
C1153       C  0.17002102  0.11404422  0.25371385     0.02800
N1154       N  0.11737926  0.14155425  0.25232475    -0.80900
H1155       H  0.08270229  0.13801057  0.23018756     0.18200
C1156       C  0.19135309  0.12990501  0.25469662    -0.25700
C1157       C  0.21359726  0.13077885  0.26499735     0.36300
C1158       C  0.21453405  0.11537680  0.27442654    -0.19800
C1159       C  0.19304893  0.09953221  0.27344371    -0.25000
C1160       C  0.17074497  0.09871519  0.26314374     0.27700
H1161       H  0.19054928  0.14163578  0.24739503     0.13400
N1162       N  0.23490230  0.14735616  0.26604356    -0.82300
H1163       H  0.19377289  0.08777345  0.28072371     0.18300
N1164       N  0.14873986  0.08248607  0.26222500    -0.80900
H1165       H  0.22925586  0.15487585  0.27474044     0.33900
H1166       H  0.23120643  0.15733162  0.25829357     0.38400
H1167       H  0.15249435  0.07239523  0.26989913     0.33900
H1168       H  0.12578734  0.08819057  0.26352931     0.30600
H1169       H  0.09793062  0.15071306  0.25024362     0.33900
H1170       H  0.11154395  0.13366623  0.26087798     0.30600
H1171       H  0.13405599  0.07117517  0.21571893     0.38400
H1172       H  0.15887581  0.08683920  0.20768335     0.33900
C1173       C  0.99737850  0.11528196  0.20071516    -0.19800
C1174       C  0.98105909  0.10014172  0.20753248     0.36400
C1175       C  0.94767420  0.10070126  0.20844218    -0.25800
C1176       C  0.93035359  0.11615002  0.20260499     0.02800
C1177       C  0.94661880  0.13129126  0.19575702     0.27600
C1178       C  0.97996837  0.13074925  0.19494292    -0.24900
N1179       N  0.99823236  0.08391151  0.21319900    -0.82300
H1180       H  0.93520501  0.08896482  0.21360974     0.13400
C1181       C  0.89510516  0.11617387  0.20317161     0.02800
N1182       N  0.92909605  0.14699901  0.18949883    -0.80900
H1183       H  0.99249151  0.14241648  0.18972791     0.18200
C1184       C  0.87945389  0.13197288  0.20936650    -0.25700
C1185       C  0.84635942  0.13444968  0.20818668     0.36300
C1186       C  0.82860660  0.12062051  0.20081871    -0.19800
C1187       C  0.84408288  0.10415859  0.19530155    -0.25000
C1188       C  0.87723067  0.10181936  0.19636513     0.27700
H1189       H  0.89338653  0.14290181  0.21461909     0.13400
N1190       N  0.83098918  0.15139854  0.21392221    -0.82300
H1191       H  0.83033371  0.09345584  0.18976832     0.18300
N1192       N  0.89292828  0.08535560  0.19016868    -0.80900
H1193       H  0.84744983  0.16006048  0.21905723     0.33900
H1194       H  0.82235756  0.16016032  0.20620909     0.38400
H1195       H  0.87632257  0.07610302  0.18562892     0.33900
H1196       H  0.90748809  0.09098106  0.18265543     0.30600
H1197       H  0.94461386  0.15701278  0.18493660     0.33900
H1198       H  0.91538042  0.14071798  0.18200072     0.30600
H1199       H  0.99306296  0.08344603  0.22329043     0.38400
H1200       H  0.98981048  0.07083903  0.20896017     0.33900
C1201       C  0.15129250  0.13064016  0.10619415    -0.19800
C1202       C  0.16449041  0.11598024  0.11454429     0.36400
C1203       C  0.15347233  0.11424712  0.12759272    -0.25800
C1204       C  0.13033555  0.12719098  0.13253421     0.02800
C1205       C  0.11815325  0.14235354  0.12444914     0.27600
C1206       C  0.12879674  0.14395757  0.11134692    -0.24900
N1207       N  0.18940184  0.10317785  0.10986462    -0.82300
H1208       H  0.16300754  0.10281810  0.13398095     0.13400
C1209       C  0.11824040  0.12433822  0.14609368     0.02800
N1210       N  0.09467191  0.15583287  0.12954290    -0.80900
H1211       H  0.11878630  0.15530600  0.10503162     0.18200
C1212       C  0.12714343  0.13766116  0.15598506    -0.25700
C1213       C  0.11495101  0.13582952  0.16885328     0.36300
C1214       C  0.09354926  0.12029256  0.17180776    -0.19800
C1215       C  0.08492420  0.10689283  0.16188092    -0.25000
C1216       C  0.09709318  0.10876341  0.14903178     0.27700
H1217       H  0.14334573  0.14963075  0.15358890     0.13400
N1218       N  0.12368779  0.14987384  0.17884087    -0.82300
H1219       H  0.06860615  0.09494424  0.16418502     0.18300
N1220       N  0.08794361  0.09503322  0.13891377    -0.80900
H1221       H  0.13973055  0.16028752  0.17506149     0.33900
H1222       H  0.10312406  0.15764987  0.18149967     0.38400
H1223       H  0.07240501  0.08434872  0.14271571     0.33900
H1224       H  0.07519486  0.10291459  0.13177520     0.30600
H1225       H  0.08830434  0.16623090  0.12236363     0.33900
H1226       H  0.07413974  0.14766276  0.13167739     0.30600
H1227       H  0.20923809  0.11201494  0.10778299     0.38400
H1228       H  0.19638380  0.09325583  0.11724350     0.33900
C1229       C  0.70295647  0.19309818  0.00479204    -0.19800
C1230       C  0.71980005  0.20949480  0.00982565     0.36400
C1231       C  0.71933069  0.22748924  0.00287357    -0.25800
C1232       C  0.70239225  0.22941746  0.99102557     0.02800
C1233       C  0.68536113  0.21305277  0.98605381     0.27600
C1234       C  0.68617752  0.19496925  0.99291229    -0.24900
N1235       N  0.73804059  0.20766450  0.02175504    -0.82300
H1236       H  0.73281962  0.23997504  0.00655054     0.13400
C1237       C  0.70394087  0.24840415  0.98365303     0.02800
N1238       N  0.66711088  0.21494379  0.97413296    -0.80900
H1239       H  0.67314025  0.18237463  0.98912146     0.18200
C1240       C  0.71543267  0.24840191  0.97064696    -0.25700
C1241       C  0.71816282  0.26606276  0.96340322     0.36300
C1242       C  0.70916671  0.28412209  0.96930617    -0.19800
C1243       C  0.69815598  0.28416775  0.98239529    -0.25000
C1244       C  0.69513643  0.26646451  0.98959465     0.27700
H1245       H  0.72278927  0.23455871  0.96620692     0.13400
N1246       N  0.73069857  0.26576235  0.95019738    -0.82300
H1247       H  0.69107431  0.29801189  0.98690368     0.18300
N1248       N  0.68278697  0.26670197  0.00283503    -0.80900
H1249       H  0.73604943  0.25128792  0.94731813     0.33900
H1250       H  0.75224881  0.27351765  0.95025323     0.38400
H1251       H  0.67752587  0.28116852  0.00575680     0.33900
H1252       H  0.66122497  0.25895783  0.00282085     0.30600
H1253       H  0.65605944  0.20153846  0.97180395     0.33900
H1254       H  0.64888637  0.22514453  0.97592999     0.30600
H1255       H  0.75642177  0.19756975  0.01995611     0.38400
H1256       H  0.74890563  0.22111337  0.02411752     0.33900
C1257       C  0.59939866  0.38460439  0.76720807    -0.19800
C1258       C  0.62141262  0.40021486  0.76573562     0.36400
C1259       C  0.64115547  0.40078648  0.75452682    -0.25800
C1260       C  0.63920791  0.38608963  0.74481383     0.02800
C1261       C  0.61703320  0.37057957  0.74622199     0.27600
C1262       C  0.59724837  0.37001470  0.75741873    -0.24900
N1263       N  0.62337008  0.41547728  0.77555493    -0.82300
H1264       H  0.65825630  0.41267740  0.75335654     0.13400
C1265       C  0.66104892  0.38703709  0.73334558     0.02800
N1266       N  0.61468960  0.35555498  0.73625967    -0.80900
H1267       H  0.58014050  0.35812367  0.75856833     0.18200
C1268       C  0.68517202  0.37281479  0.73208497    -0.25700
C1269       C  0.70773937  0.37402538  0.72184603     0.36300
C1270       C  0.70629502  0.38996902  0.71282074    -0.19800
C1271       C  0.68140151  0.40378830  0.71385785    -0.25000
C1272       C  0.65866517  0.40242155  0.72400441     0.27700
H1273       H  0.68660540  0.36090062  0.73923397     0.13400
N1274       N  0.73199445  0.35912729  0.72054897    -0.82300
H1275       H  0.68009079  0.41592960  0.70687828     0.18300
N1276       N  0.63330217  0.41665061  0.72495407    -0.80900
H1277       H  0.72976008  0.34848311  0.72799684     0.33900
H1278       H  0.72818488  0.35182109  0.71161135     0.38400
H1279       H  0.63499112  0.42707134  0.71734364     0.33900
H1280       H  0.61184865  0.40908839  0.72355090     0.30600
H1281       H  0.59731735  0.34513927  0.73882512     0.33900
H1282       H  0.60691723  0.36238574  0.72757840     0.30600
H1283       H  0.60163224  0.42303788  0.77559815     0.38400
H1284       H  0.64084346  0.42583450  0.77300218     0.33900
C1285       C  0.63596972  0.37028673  0.88256351    -0.19800
C1286       C  0.61225590  0.38398463  0.87872645     0.36400
C1287       C  0.60195209  0.38444146  0.86553178    -0.25800
C1288       C  0.61480641  0.37153662  0.85612141     0.02800
C1289       C  0.63851049  0.35788991  0.85987827     0.27600
C1290       C  0.64856684  0.35723966  0.87310612    -0.24900
N1291       N  0.59842444  0.39719927  0.88823872    -0.82300
H1292       H  0.58382503  0.39494147  0.86253012     0.13400
C1293       C  0.60384785  0.37307703  0.84227558     0.02800
N1294       N  0.65315025  0.34533189  0.85016569    -0.80900
H1295       H  0.66701283  0.34687547  0.87596271     0.18200
C1296       C  0.61730402  0.38755126  0.83405868    -0.25700
C1297       C  0.60630564  0.39038803  0.82108583     0.36300
C1298       C  0.58184557  0.37810270  0.81613550    -0.19800
C1299       C  0.56842034  0.36361681  0.82444377    -0.25000
C1300       C  0.57895161  0.36111061  0.83750440     0.27700
H1301       H  0.63597813  0.39696331  0.83791317     0.13400
N1302       N  0.61920311  0.40605899  0.81308382    -0.82300
H1303       H  0.54952027  0.35425589  0.82072897     0.18300
N1304       N  0.56373082  0.34697730  0.84606969    -0.80900
H1305       H  0.63690031  0.41373231  0.81820363     0.33900
H1306       H  0.60085776  0.41617578  0.81128340     0.38400
H1307       H  0.54519654  0.33979105  0.84114571     0.33900
H1308       H  0.58039890  0.33608320  0.84846889     0.30600
H1309       H  0.67082834  0.33656482  0.85448273     0.33900
H1310       H  0.63583355  0.33561547  0.84663161     0.30600
H1311       H  0.58610413  0.38858719  0.89514708     0.38400
H1312       H  0.58157786  0.40642853  0.88377851     0.33900
C1313       C  0.20329614  0.22196755  0.01865365    -0.19800
C1314       C  0.22863230  0.22872149  0.01060145     0.36400
C1315       C  0.22637246  0.24735687  0.00444098    -0.25800
C1316       C  0.19949324  0.25938433  0.00622700     0.02800
C1317       C  0.17442989  0.25283641  0.01439062     0.27600
C1318       C  0.17658245  0.23421240  0.02052489    -0.24900
N1319       N  0.25677605  0.21687196  0.00889865    -0.82300
H1320       H  0.24563478  0.25256804  0.99820224     0.13400
C1321       C  0.19776138  0.27876223  0.99937602     0.02800
N1322       N  0.14692793  0.26515980  0.01640344    -0.80900
H1323       H  0.15708322  0.22913894  0.02667707     0.18200
C1324       C  0.17582811  0.28134342  0.98911242    -0.25700
C1325       C  0.17382366  0.29937492  0.98220253     0.36300
C1326       C  0.19446717  0.31509186  0.98557444    -0.19800
C1327       C  0.21592181  0.31257063  0.99607676    -0.25000
C1328       C  0.21777718  0.29455048  0.00300640     0.27700
H1329       H  0.16026354  0.26919025  0.98648475     0.13400
N1330       N  0.15055744  0.30185254  0.97194857    -0.82300
H1331       H  0.23171153  0.32458149  0.99874196     0.18300
N1332       N  0.23990921  0.29216489  0.01369529    -0.80900
H1333       H  0.13740854  0.28886262  0.97066761     0.33900
H1334       H  0.13445381  0.31269255  0.97506684     0.38400
H1335       H  0.25302934  0.30513729  0.01508934     0.33900
H1336       H  0.22665307  0.28993739  0.02231799     0.30600
H1337       H  0.13051150  0.25814589  0.02261938     0.33900
H1338       H  0.15445872  0.27791074  0.02131387     0.30600
H1339       H  0.26788077  0.21570261  0.01808931     0.38400
H1340       H  0.27298806  0.22393476  0.00261469     0.33900
C1341       C  0.09911165  0.39613632  0.72032410    -0.19800
C1342       C  0.09367869  0.38352033  0.73125013     0.36400
C1343       C  0.11455691  0.38415438  0.74205715    -0.25800
C1344       C  0.14091346  0.39683640  0.74200815     0.02800
C1345       C  0.14649345  0.40937294  0.73114470     0.27600
C1346       C  0.12548368  0.40892812  0.72039358    -0.24900
N1347       N  0.06755522  0.36976128  0.73116992    -0.82300
H1348       H  0.11072133  0.37444496  0.75043510     0.13400
C1349       C  0.16329004  0.39636956  0.75319878     0.02800
N1350       N  0.17375819  0.42224587  0.73102550    -0.80900
H1351       H  0.12967958  0.41857942  0.71201730     0.18200
C1352       C  0.19035202  0.38434872  0.75236610    -0.25700
C1353       C  0.21267562  0.38376436  0.76265378     0.36300
C1354       C  0.20822214  0.39600513  0.77383411    -0.19800
C1355       C  0.18065147  0.40778725  0.77467723    -0.25000
C1356       C  0.15801357  0.40796764  0.76449231     0.27700
H1357       H  0.19388382  0.37528840  0.74367626     0.13400
N1358       N  0.23949911  0.37057008  0.76186325    -0.82300
H1359       H  0.17702684  0.41716317  0.78320265     0.18300
N1360       N  0.12969262  0.41983351  0.76554697    -0.80900
H1361       H  0.23924265  0.36269613  0.75299803     0.33900
H1362       H  0.23714299  0.36015531  0.76944504     0.38400
H1363       H  0.12916911  0.42728412  0.77457098     0.33900
H1364       H  0.13070261  0.43068922  0.75819454     0.30600
H1365       H  0.17469953  0.43032494  0.72222317     0.33900
H1366       H  0.17079473  0.43253442  0.73861260     0.30600
H1367       H  0.07167507  0.35964996  0.72356270     0.38400
H1368       H  0.06692804  0.36159615  0.73993981     0.33900
C1369       C  0.32184123  0.39706475  0.78864314    -0.19800
C1370       C  0.34340813  0.41112396  0.79368435     0.36400
C1371       C  0.37616968  0.40879237  0.79128310    -0.25800
C1372       C  0.38766396  0.39275556  0.78390898     0.02800
C1373       C  0.36601757  0.37923706  0.77832882     0.27600
C1374       C  0.33324717  0.38154083  0.78074276    -0.24900
N1375       N  0.33194567  0.42756542  0.80131177    -0.82300
H1376       H  0.39294076  0.41915916  0.79552603     0.13400
C1377       C  0.42249381  0.38937260  0.78324852     0.02800
N1378       N  0.37751546  0.36306830  0.77045427    -0.80900
H1379       H  0.31658039  0.37085770  0.77678336     0.18200
C1380       C  0.43517021  0.37259041  0.78948115    -0.25700
C1381       C  0.46822993  0.36995404  0.79060196     0.36300
C1382       C  0.48895444  0.38451231  0.78547714    -0.19800
C1383       C  0.47626895  0.40082878  0.77866833    -0.25000
C1384       C  0.44315237  0.40339906  0.77749737     0.27700
H1385       H  0.41915184  0.36181152  0.79383115     0.13400
N1386       N  0.48087439  0.35266859  0.79701994    -0.82300
H1387       H  0.49224517  0.41187944  0.77460911     0.18300
N1388       N  0.43035187  0.42030754  0.77070588    -0.80900
H1389       H  0.46244586  0.34345976  0.80028452     0.33900
H1390       H  0.49368047  0.34465514  0.78996802     0.38400
H1391       H  0.44873277  0.42926360  0.76709463     0.33900
H1392       H  0.41790602  0.41510949  0.76249157     0.30600
H1393       H  0.35853318  0.35439111  0.76714770     0.33900
H1394       H  0.38832132  0.36909901  0.76205687     0.30600
H1395       H  0.31775659  0.43626025  0.79512468     0.38400
H1396       H  0.35090050  0.43650123  0.80432913     0.33900
C1397       C  0.23413879  0.39650621  0.82218408    -0.19800
C1398       C  0.21257637  0.41063196  0.82728175     0.36400
C1399       C  0.20416900  0.40992016  0.84071964    -0.25800
C1400       C  0.21702169  0.39547349  0.84911079     0.02800
C1401       C  0.23826514  0.38126198  0.84402408     0.27600
C1402       C  0.24655833  0.38188590  0.83059250    -0.24900
N1403       N  0.20000313  0.42591913  0.81888880    -0.82300
H1404       H  0.18811212  0.42092014  0.84475973     0.13400
C1405       C  0.21015445  0.39633708  0.86342851     0.02800
N1406       N  0.25166527  0.36646346  0.85258168    -0.80900
H1407       H  0.26298879  0.37101083  0.82666203     0.18200
C1408       C  0.18907636  0.38270908  0.86915922    -0.25700
C1409       C  0.18312206  0.38281099  0.88284528     0.36300
C1410       C  0.19909752  0.39664829  0.89094345    -0.19800
C1411       C  0.21975242  0.41047244  0.88504507    -0.25000
C1412       C  0.22555092  0.41037950  0.87140447     0.27700
H1413       H  0.17723949  0.37201023  0.86291397     0.13400
N1414       N  0.16067638  0.36911380  0.88847030    -0.82300
H1415       H  0.23229483  0.42103844  0.89113376     0.18300
N1416       N  0.24745860  0.42427582  0.86561076    -0.80900
H1417       H  0.15119555  0.35992834  0.88118112     0.33900
H1418       H  0.14167384  0.37735565  0.89225841     0.38400
H1419       H  0.25667450  0.43372882  0.87280421     0.33900
H1420       H  0.26673968  0.41624587  0.86185925     0.30600
H1421       H  0.26671188  0.35703257  0.84728457     0.33900
H1422       H  0.26594287  0.37370909  0.85949125     0.30600
H1423       H  0.21907393  0.43480121  0.81586810     0.38400
H1424       H  0.18445371  0.43506686  0.82416015     0.33900
C1425       C  0.79229303  0.94483630  0.97244277    -0.19800
C1426       C  0.76778463  0.94525498  0.98201119     0.36400
C1427       C  0.76134047  0.96296862  0.98874690    -0.25800
C1428       C  0.77887522  0.98016996  0.98610259     0.02800
C1429       C  0.80339408  0.97978985  0.97660214     0.27600
C1430       C  0.80976786  0.96212443  0.96980779    -0.24900
N1431       N  0.74908245  0.92786697  0.98463942    -0.82300
H1432       H  0.74240792  0.96345573  0.99602657     0.13400
C1433       C  0.77064840  0.99866128  0.99310057     0.02800
N1434       N  0.82157796  0.99736266  0.97388513    -0.80900
H1435       H  0.82866903  0.96178704  0.96251411     0.18200
C1436       C  0.79144319  0.00611054  0.00268117    -0.25700
C1437       C  0.78423372  0.02363752  0.00951794     0.36300
C1438       C  0.75574092  0.03384603  0.00661874    -0.19800
C1439       C  0.73517418  0.02646974  0.99691668    -0.25000
C1440       C  0.74225585  0.00887292  0.99017787     0.27700
H1441       H  0.81330595  0.99819850  0.00480860     0.13400
N1442       N  0.80593933  0.03128718  0.01919515    -0.82300
H1443       H  0.71331824  0.03434585  0.99472080     0.18300
N1444       N  0.72079302  0.00128707  0.98038412    -0.80900
H1445       H  0.82571382  0.02198564  0.02016269     0.33900
H1446       H  0.81450376  0.04484444  0.01568548     0.38400
H1447       H  0.70082665  0.01044110  0.97949557     0.33900
H1448       H  0.73259240  0.00173276  0.97129175     0.30600
H1449       H  0.83892963  0.99455722  0.96671065     0.33900
H1450       H  0.80606196  0.00785952  0.96986425     0.30600
H1451       H  0.73638095  0.92455104  0.97606384     0.38400
H1452       H  0.73217360  0.93066583  0.99199259     0.33900
C1453       C  0.90672186  0.90351552  0.76695553    -0.19800
C1454       C  0.87863477  0.91498761  0.76798828     0.36400
C1455       C  0.85735460  0.91567593  0.75734378    -0.25800
C1456       C  0.86391059  0.90555032  0.74563201     0.02800
C1457       C  0.89222025  0.89453550  0.74438661     0.27600
C1458       C  0.91341654  0.89360643  0.75508959    -0.24900
N1459       N  0.87207113  0.92612153  0.77975569    -0.82300
H1460       H  0.83564060  0.92428708  0.75810902     0.13400
C1461       C  0.84075716  0.90680968  0.73474047     0.02800
N1462       N  0.89926074  0.88441159  0.73227000    -0.80900
H1463       H  0.93493225  0.88482544  0.75426803     0.18200
C1464       C  0.84449413  0.92154461  0.72513316    -0.25700
C1465       C  0.82188563  0.92396820  0.71505322     0.36300
C1466       C  0.79550141  0.91100179  0.71443840    -0.19800
C1467       C  0.79188011  0.89628207  0.72414696    -0.25000
C1468       C  0.81419631  0.89413491  0.73434518     0.27700
H1469       H  0.86475562  0.93144071  0.72569987     0.13400
N1470       N  0.82516887  0.93982526  0.70566988    -0.82300
H1471       H  0.77166732  0.88633472  0.72370891     0.18300
N1472       N  0.80984990  0.87935146  0.74441123    -0.80900
H1473       H  0.84583880  0.94799075  0.70752106     0.33900
H1474       H  0.80596733  0.94945960  0.70705188     0.38400
H1475       H  0.78878600  0.87144344  0.74281313     0.33900
H1476       H  0.82852124  0.86920313  0.74358937     0.30600
H1477       H  0.92123207  0.87716317  0.73291463     0.33900
H1478       H  0.88203548  0.87342882  0.73099360     0.30600
H1479       H  0.88983503  0.93686567  0.78065706     0.38400
H1480       H  0.85042978  0.93369193  0.77891727     0.33900
C1481       C  0.92502783  0.89102503  0.81507154    -0.19800
C1482       C  0.90448445  0.87487134  0.81757939     0.36400
C1483       C  0.89258356  0.87189772  0.83040736    -0.25800
C1484       C  0.90141981  0.88447630  0.84072851     0.02800
C1485       C  0.92247585  0.90029318  0.83832921     0.27600
C1486       C  0.93393951  0.90347997  0.82549639    -0.24900
N1487       N  0.89644280  0.86132766  0.80719232    -0.82300
H1488       H  0.87683954  0.85955106  0.83244345     0.13400
C1489       C  0.88986475  0.88039098  0.85420726     0.02800
N1490       N  0.93266782  0.91274684  0.84900089    -0.80900
H1491       H  0.94979730  0.91581535  0.82358904     0.18200
C1492       C  0.90760606  0.86771182  0.86228506    -0.25700
C1493       C  0.89893124  0.86451996  0.87550944     0.36300
C1494       C  0.87174665  0.87417470  0.88066838    -0.19800
C1495       C  0.85367106  0.88656690  0.87241711    -0.25000
C1496       C  0.86238541  0.88970148  0.85919157     0.27700
H1497       H  0.92875653  0.86067910  0.85831616     0.13400
N1498       N  0.91824719  0.85207972  0.88377742    -0.82300
H1499       H  0.83261445  0.89379550  0.87630067     0.18300
N1500       N  0.84332621  0.90209119  0.85077400    -0.80900
H1501       H  0.93711564  0.84598601  0.87839670     0.33900
H1502       H  0.92844396  0.86105845  0.89101459     0.38400
H1503       H  0.82356679  0.90752212  0.85591404     0.33900
H1504       H  0.85699944  0.91439192  0.84810763     0.30600
H1505       H  0.94882826  0.92338937  0.84562477     0.33900
H1506       H  0.91277627  0.92047020  0.85246609     0.30600
H1507       H  0.91744126  0.85426267  0.80424522     0.38400
H1508       H  0.88117257  0.85026919  0.81069602     0.33900
C1509       C  0.28770021  0.97109247  0.98354924    -0.19800
C1510       C  0.26091435  0.98237998  0.97975574     0.36400
C1511       C  0.25417220  0.00016801  0.98638337    -0.25800
C1512       C  0.27368047  0.00686567  0.99668463     0.02800
C1513       C  0.30050185  0.99557655  0.00041732     0.27600
C1514       C  0.30696831  0.97769344  0.99392356    -0.24900
N1515       N  0.24026263  0.97551400  0.96944067    -0.82300
H1516       H  0.23330979  0.00869191  0.98367031     0.13400
C1517       C  0.26527912  0.02537989  0.00378363     0.02800
N1518       N  0.32127416  0.00246135  0.01068830    -0.80900
H1519       H  0.32763051  0.96907608  0.99676463     0.18200
C1520       C  0.26116729  0.02476031  0.01750144    -0.25700
C1521       C  0.25385807  0.04189325  0.02471255     0.36300
C1522       C  0.24896823  0.06002486  0.01796328    -0.19800
C1523       C  0.25329159  0.06058830  0.00419702    -0.25000
C1524       C  0.26171109  0.04353464  0.99706889     0.27700
H1525       H  0.26402036  0.01079401  0.02264043     0.13400
N1526       N  0.25214548  0.04089971  0.03885854    -0.82300
H1527       H  0.24975901  0.07432731  0.99889380     0.18300
N1528       N  0.26679737  0.04459404  0.98305442    -0.80900
H1529       H  0.25602810  0.02644997  0.04220174     0.33900
H1530       H  0.27076149  0.04949099  0.04258659     0.38400
H1531       H  0.26315506  0.05901245  0.97960967     0.33900
H1532       H  0.29073111  0.04122818  0.98125899     0.30600
H1533       H  0.33983506  0.99241560  0.01227412     0.33900
H1534       H  0.33176243  0.01561878  0.00741066     0.30600
H1535       H  0.22974839  0.96234380  0.97268549     0.38400
H1536       H  0.22169599  0.98555612  0.96785436     0.33900
C1537       C  0.29713381  0.89591942  0.77555518    -0.19800
C1538       C  0.32093692  0.91053281  0.77479423     0.36400
C1539       C  0.34199762  0.91071310  0.76405884    -0.25800
C1540       C  0.33963675  0.89643678  0.75410990     0.02800
C1541       C  0.31574182  0.88182430  0.75479165     0.27600
C1542       C  0.29460710  0.88172387  0.76554338    -0.24900
N1543       N  0.32329349  0.92542587  0.78477118    -0.82300
H1544       H  0.36025424  0.92202219  0.76347024     0.13400
C1545       C  0.36208480  0.89709503  0.74291511     0.02800
N1546       N  0.31301071  0.86727905  0.74453041    -0.80900
H1547       H  0.27616613  0.87053671  0.76616474     0.18200
C1548       C  0.38500942  0.88213032  0.74162803    -0.25700
C1549       C  0.40628624  0.88213537  0.73096021     0.36300
C1550       C  0.40441864  0.89723696  0.72142273    -0.19800
C1551       C  0.38156487  0.91224642  0.72273960    -0.25000
C1552       C  0.36035971  0.91236197  0.73345456     0.27700
H1553       H  0.38626645  0.87038375  0.74890731     0.13400
N1554       N  0.42923230  0.86657142  0.72964912    -0.82300
H1555       H  0.38026849  0.92384247  0.71535410     0.18300
N1556       N  0.33692484  0.92776195  0.73473260    -0.80900
H1557       H  0.41695937  0.85311251  0.72930233     0.33900
H1558       H  0.44345734  0.86652077  0.73809499     0.38400
H1559       H  0.33901387  0.93793500  0.72699232     0.33900
H1560       H  0.31446015  0.92122474  0.73383359     0.30600
H1561       H  0.29430301  0.85751656  0.74656648     0.33900
H1562       H  0.30700982  0.87470952  0.73582467     0.30600
H1563       H  0.34611959  0.92466756  0.78884960     0.38400
H1564       H  0.32079869  0.93924853  0.78023505     0.33900
C1565       C  0.18543392  0.89921866  0.79220105    -0.19800
C1566       C  0.17286550  0.91629618  0.78609098     0.36400
C1567       C  0.13983537  0.91769086  0.78399964    -0.25800
C1568       C  0.11933522  0.90242408  0.78801648     0.02800
C1569       C  0.13195923  0.88540689  0.79418031     0.27600
C1570       C  0.16492548  0.88396346  0.79617142    -0.24900
N1571       N  0.19361985  0.93223359  0.78226139    -0.82300
H1572       H  0.12995444  0.93076679  0.77934446     0.13400
C1573       C  0.08449459  0.90456285  0.78624169     0.02800
N1574       N  0.11115241  0.86979426  0.79854376    -0.80900
H1575       H  0.17473850  0.87090319  0.80087846     0.18200
C1576       C  0.06813341  0.89061275  0.77859023    -0.25700
C1577       C  0.03469609  0.89027805  0.77828868     0.36300
C1578       C  0.01746306  0.90441443  0.78560342    -0.19800
C1579       C  0.03383448  0.91904922  0.79266306    -0.25000
C1580       C  0.06727863  0.91924924  0.79308604     0.27700
H1581       H  0.08154259  0.87943024  0.77331172     0.13400
N1582       N  0.01817707  0.87513152  0.77109018    -0.82300
H1583       H  0.02039571  0.92984407  0.79827901     0.18300
N1584       N  0.08377026  0.93378343  0.80083578    -0.80900
H1585       H  0.03438075  0.86590069  0.76623745     0.33900
H1586       H  0.00610978  0.86627255  0.77793643     0.38400
H1587       H  0.06759365  0.94357008  0.80519289     0.33900
H1588       H  0.09522077  0.92636177  0.80854704     0.30600
H1589       H  0.12424116  0.85827153  0.80279649     0.33900
H1590       H  0.09658571  0.87552881  0.80599243     0.30600
H1591       H  0.20368259  0.93802291  0.79085190     0.38400
H1592       H  0.18059411  0.94369754  0.77790409     0.33900
C1593       C  0.27505678  0.88907622  0.82385691    -0.19800
C1594       C  0.26092908  0.87507201  0.83243647     0.36400
C1595       C  0.27023036  0.87447052  0.84572899    -0.25800
C1596       C  0.29381678  0.88722364  0.85047353     0.02800
C1597       C  0.30918600  0.90046105  0.84181100     0.27600
C1598       C  0.29962997  0.90127093  0.82855240    -0.24900
N1599       N  0.23726435  0.86154234  0.82760725    -0.82300
H1600       H  0.25883199  0.86419845  0.85247291     0.13400
C1601       C  0.30075372  0.88740389  0.86472616     0.02800
N1602       N  0.33419460  0.91310159  0.84655435    -0.80900
H1603       H  0.31066283  0.91190585  0.82195957     0.18200
C1604       C  0.32488430  0.87526786  0.86978604    -0.25700
C1605       C  0.33200140  0.87525832  0.88334848     0.36300
C1606       C  0.31431877  0.88756135  0.89193874    -0.19800
C1607       C  0.29005043  0.89959075  0.88675313    -0.25000
C1608       C  0.28309872  0.89963784  0.87323946     0.27700
H1609       H  0.33831176  0.86593087  0.86310656     0.13400
N1610       N  0.35743316  0.86314339  0.88833549    -0.82300
H1611       H  0.27611515  0.90885009  0.89328979     0.18300
N1612       N  0.25786911  0.91183344  0.86812766    -0.80900
H1613       H  0.36782517  0.85492826  0.88072787     0.33900
H1614       H  0.37512075  0.87260280  0.89189837     0.38400
H1615       H  0.24678301  0.91967587  0.87573555     0.33900
H1616       H  0.26811854  0.92238846  0.86186930     0.30600
H1617       H  0.34335557  0.92175273  0.83887318     0.33900
H1618       H  0.32421010  0.92290460  0.85337219     0.30600
H1619       H  0.24825578  0.85247223  0.82060378     0.38400
H1620       H  0.22927274  0.85224323  0.83518046     0.33900
C1621       C  0.79047395  0.53201141  0.00501654    -0.19800
C1622       C  0.76700235  0.51883208  0.00979676     0.36400
C1623       C  0.75898057  0.50200704  0.00235312    -0.25800
C1624       C  0.77414036  0.49781787  0.99029774     0.02800
C1625       C  0.79766046  0.51100662  0.98553374     0.27600
C1626       C  0.80521700  0.52805559  0.99284893    -0.24900
N1627       N  0.75079494  0.52279153  0.02201484    -0.82300
H1628       H  0.74043530  0.49219180  0.00590793     0.13400
C1629       C  0.76488946  0.47965545  0.98281011     0.02800
N1630       N  0.81414405  0.50690106  0.97339637    -0.80900
H1631       H  0.82329631  0.53810162  0.98916875     0.18200
C1632       C  0.75653544  0.48112176  0.96943347    -0.25700
C1633       C  0.74749027  0.46435534  0.96209630     0.36300
C1634       C  0.74485749  0.44571804  0.96845737    -0.19800
C1635       C  0.75340688  0.44435248  0.98185489    -0.25000
C1636       C  0.76396918  0.46091989  0.98897889     0.27700
H1637       H  0.75721074  0.49546230  0.96464552     0.13400
N1638       N  0.74171162  0.46626576  0.94818955    -0.82300
H1639       H  0.75179193  0.43029433  0.98692514     0.18300
N1640       N  0.77400321  0.45873929  0.00246035    -0.80900
H1641       H  0.74440984  0.48095418  0.94512314     0.33900
H1642       H  0.75929467  0.45812098  0.94329129     0.38400
H1643       H  0.77182460  0.44403445  0.00556144     0.33900
H1644       H  0.79825899  0.46220039  0.00286045     0.30600
H1645       H  0.83059634  0.51807677  0.97125095     0.33900
H1646       H  0.82723388  0.49389626  0.97476023     0.30600
H1647       H  0.73759895  0.53578092  0.02075401     0.38400
H1648       H  0.73443412  0.51157419  0.02417911     0.33900
C1649       C  0.84671873  0.78551178  0.97198168    -0.19800
C1650       C  0.86967315  0.77088642  0.96890772     0.36400
C1651       C  0.86838670  0.75243949  0.97533008    -0.25800
C1652       C  0.84519606  0.74855108  0.98493313     0.02800
C1653       C  0.82307130  0.76330097  0.98839658     0.27600
C1654       C  0.82402072  0.78164305  0.98187527    -0.24900
N1655       N  0.89456667  0.77491615  0.95952193    -0.82300
H1656       H  0.88568142  0.74107870  0.97294516     0.13400
C1657       C  0.84461489  0.72901941  0.99147275     0.02800
N1658       N  0.79986036  0.75958458  0.99855803    -0.80900
H1659       H  0.80646923  0.79279246  0.98434211     0.18200
C1660       C  0.86152967  0.72640021  0.00321373    -0.25700
C1661       C  0.86127149  0.70813258  0.00985674     0.36300
C1662       C  0.84285551  0.69232349  0.00479488    -0.19800
C1663       C  0.82654495  0.69495665  0.99281339    -0.25000
C1664       C  0.82731287  0.71316101  0.98608598     0.27700
H1665       H  0.87518997  0.73864936  0.00713276     0.13400
N1666       N  0.88019186  0.70552968  0.02153192    -0.82300
H1667       H  0.81255597  0.68293496  0.98881145     0.18300
N1668       N  0.81070315  0.71563199  0.97380210    -0.80900
H1669       H  0.89211190  0.71861617  0.02393005     0.33900
H1670       H  0.89775044  0.69503439  0.01938634     0.38400
H1671       H  0.79950292  0.70244767  0.97107841     0.33900
H1672       H  0.79262508  0.72603907  0.97527970     0.30600
H1673       H  0.78564006  0.77208338  0.00007654     0.33900
H1674       H  0.78470590  0.74840354  0.99522233     0.30600
H1675       H  0.90870848  0.78621870  0.96340375     0.38400
H1676       H  0.90939347  0.76259345  0.95840672     0.33900
C1677       C  0.92934488  0.63706876  0.26975979    -0.19800
C1678       C  0.92890666  0.64985293  0.25878782     0.36400
C1679       C  0.90702549  0.64659298  0.24859816    -0.25800
C1680       C  0.88585543  0.63057691  0.24913807     0.02800
C1681       C  0.88633795  0.61763586  0.26005421     0.27600
C1682       C  0.90804050  0.62108062  0.27032976    -0.24900
N1683       N  0.95027961  0.66633613  0.25809359    -0.82300
H1684       H  0.90662618  0.65653904  0.24019625     0.13400
C1685       C  0.86341539  0.62752735  0.23813622     0.02800
N1686       N  0.86480774  0.60111802  0.26062871    -0.80900
H1687       H  0.90851872  0.61123497  0.27878324     0.18200
C1688       C  0.86886421  0.61205743  0.22923615    -0.25700
C1689       C  0.84859207  0.60913680  0.21843558     0.36300
C1690       C  0.82241511  0.62187485  0.21650337    -0.19800
C1691       C  0.81680425  0.63722110  0.22554685    -0.25000
C1692       C  0.83706321  0.64015628  0.23637467     0.27700
H1693       H  0.88904884  0.60227901  0.23065330     0.13400
N1694       N  0.85426804  0.59299337  0.20961318    -0.82300
H1695       H  0.79666281  0.64701855  0.22408691     0.18300
N1696       N  0.83108417  0.65587622  0.24558494    -0.80900
H1697       H  0.85389169  0.57988323  0.21510382     0.33900
H1698       H  0.87712425  0.59466331  0.20563619     0.38400
H1699       H  0.81084990  0.66389685  0.24283320     0.33900
H1700       H  0.82593187  0.64939452  0.25472243     0.30600
H1701       H  0.86843562  0.59293692  0.26926242     0.33900
H1702       H  0.84164789  0.60677262  0.26116016     0.30600
H1703       H  0.96389817  0.66492660  0.24950050     0.38400
H1704       H  0.93668487  0.67924891  0.25727710     0.33900
C1705       C  0.83373441  0.61258953  0.09878824    -0.19800
C1706       C  0.84686371  0.59760413  0.10684521     0.36400
C1707       C  0.84259560  0.59849586  0.12061101    -0.25800
C1708       C  0.82574012  0.61414122  0.12645851     0.02800
C1709       C  0.81363565  0.62947799  0.11844802     0.27600
C1710       C  0.81804034  0.62863819  0.10471940    -0.24900
N1711       N  0.86467807  0.58166629  0.10104478    -0.82300
H1712       H  0.85220240  0.58687762  0.12682335     0.13400
C1713       C  0.81928279  0.61384246  0.14087585     0.02800
N1714       N  0.79606064  0.64552795  0.12425950    -0.80900
H1715       H  0.80798202  0.64018425  0.09857690     0.18200
C1716       C  0.83012130  0.62946021  0.14879813    -0.25700
C1717       C  0.82161968  0.63065553  0.16221192     0.36300
C1718       C  0.80224736  0.61576123  0.16781733    -0.19800
C1719       C  0.79230040  0.59983063  0.15997865    -0.25000
C1720       C  0.80050207  0.59874622  0.14655810     0.27700
H1721       H  0.84454686  0.64101924  0.14438671     0.13400
N1722       N  0.83169806  0.64721946  0.17003150    -0.82300
H1723       H  0.77750965  0.58838434  0.16431741     0.18300
N1724       N  0.78912512  0.58266788  0.13858847    -0.80900
H1725       H  0.84581110  0.65683699  0.16442529     0.33900
H1726       H  0.81131885  0.65515271  0.17272973     0.38400
H1727       H  0.77577147  0.57275573  0.14428364     0.33900
H1728       H  0.77359692  0.58858209  0.13155538     0.30600
H1729       H  0.78887683  0.65563051  0.11702649     0.33900
H1730       H  0.77525306  0.63962902  0.12837457     0.30600
H1731       H  0.88499602  0.58778119  0.09665564     0.38400
H1732       H  0.87269254  0.57189228  0.10832725     0.33900
C1733       C  0.27643450  0.56236471  0.02027131    -0.19800
C1734       C  0.25871193  0.54736306  0.02665106     0.36400
C1735       C  0.24841476  0.53091184  0.01937307    -0.25800
C1736       C  0.25551883  0.52913141  0.00589769     0.02800
C1737       C  0.27258609  0.54431276  0.99945515     0.27600
C1738       C  0.28258733  0.56086365  0.00668697    -0.24900
N1739       N  0.25089050  0.54896776  0.04041940    -0.82300
H1740       H  0.23487588  0.51933431  0.02422735     0.13400
C1741       C  0.24604432  0.51091474  0.99878627     0.02800
N1742       N  0.28037576  0.54261487  0.98568333    -0.80900
H1743       H  0.29621382  0.57233306  0.00177069     0.18200
C1744       C  0.22647107  0.51231071  0.98762480    -0.25700
C1745       C  0.21768824  0.49534199  0.98050161     0.36300
C1746       C  0.22893929  0.47659474  0.98462290    -0.19800
C1747       C  0.24806133  0.47526457  0.99594237    -0.25000
C1748       C  0.25691477  0.49221238  0.00300289     0.27700
H1749       H  0.21785599  0.52670680  0.98453125     0.13400
N1750       N  0.19696586  0.49709424  0.96929107    -0.82300
H1751       H  0.25692354  0.46097607  0.99911064     0.18300
N1752       N  0.27741587  0.49056313  0.01430120    -0.80900
H1753       H  0.19109731  0.51190794  0.96754477     0.33900
H1754       H  0.17568984  0.48982986  0.97162170     0.38400
H1755       H  0.28317082  0.47576272  0.01614992     0.33900
H1756       H  0.29877603  0.49776921  0.01201890     0.30600
H1757       H  0.29292851  0.55507694  0.98243708     0.33900
H1758       H  0.29573095  0.53053557  0.98461969     0.30600
H1759       H  0.23588346  0.56120526  0.04152745     0.38400
H1760       H  0.23796041  0.53661113  0.04358906     0.33900
C1761       C  0.34458169  0.81235265  0.98756504    -0.19800
C1762       C  0.33016875  0.81012263  0.00013844     0.36400
C1763       C  0.33142128  0.79168365  0.00653636    -0.25800
C1764       C  0.34589838  0.77537584  0.00053945     0.02800
C1765       C  0.36013012  0.77739421  0.98804808     0.27600
C1766       C  0.35957469  0.79590372  0.98173153    -0.24900
N1767       N  0.31324929  0.82622166  0.00618457    -0.82300
H1768       H  0.32019175  0.78980967  0.01609768     0.13400
C1769       C  0.34435849  0.75602729  0.00724546     0.02800
N1770       N  0.37432525  0.76053550  0.98170676    -0.80900
H1771       H  0.37080967  0.79741851  0.97215891     0.18200
C1772       C  0.31801376  0.74381523  0.00499319    -0.25700
C1773       C  0.31456123  0.72578327  0.01175283     0.36300
C1774       C  0.33836903  0.71977093  0.02075972    -0.19800
C1775       C  0.36466077  0.73215573  0.02302512    -0.25000
C1776       C  0.36789303  0.75026527  0.01633235     0.27700
H1777       H  0.29978661  0.74861084  0.99813405     0.13400
N1778       N  0.28656167  0.71390924  0.00979636    -0.82300
H1779       H  0.38292073  0.72759237  0.02992876     0.18300
N1780       N  0.39461115  0.76299183  0.01887411    -0.80900
H1781       H  0.27149230  0.72045247  0.00283741     0.33900
H1782       H  0.27398552  0.71361633  0.01870996     0.38400
H1783       H  0.40951781  0.75671827  0.02599557     0.33900
H1784       H  0.40802835  0.76398893  0.01019956     0.30600
H1785       H  0.38320558  0.76443221  0.97241628     0.33900
H1786       H  0.39390797  0.75612101  0.98734666     0.30600
H1787       H  0.29331882  0.82923818  0.00034875     0.38400
H1788       H  0.30458862  0.82213150  0.01548070     0.33900
C1789       C  0.43323272  0.61817374  0.22362942    -0.19800
C1790       C  0.43291081  0.60202951  0.23247734     0.36400
C1791       C  0.41196730  0.60234045  0.24332725    -0.25800
C1792       C  0.39137954  0.61840539  0.24537012     0.02800
C1793       C  0.39181833  0.63455246  0.23655930     0.27600
C1794       C  0.41283591  0.63429527  0.22578265    -0.24900
N1795       N  0.45327055  0.58525817  0.23023043    -0.82300
H1796       H  0.41128102  0.58992429  0.25010666     0.13400
C1797       C  0.36825325  0.61782247  0.25638928     0.02800
N1798       N  0.37051852  0.65096441  0.23849207    -0.80900
H1799       H  0.41313344  0.64662832  0.21892910     0.18200
C1800       C  0.37159306  0.63108601  0.26690461    -0.25700
C1801       C  0.34880499  0.63184125  0.27707470     0.36300
C1802       C  0.32232764  0.61894266  0.27669729    -0.19800
C1803       C  0.31930509  0.60552746  0.26622564    -0.25000
C1804       C  0.34197479  0.60488287  0.25603411     0.27700
H1805       H  0.39177109  0.64108505  0.26702930     0.13400
N1806       N  0.35205022  0.64591959  0.28759823    -0.82300
H1807       H  0.29906147  0.59558764  0.26598356     0.18300
N1808       N  0.33822043  0.59137620  0.24521315    -0.80900
H1809       H  0.37287314  0.65423381  0.28641803     0.33900
H1810       H  0.33301066  0.65584636  0.28691940     0.38400
H1811       H  0.31770819  0.58280073  0.24647573     0.33900
H1812       H  0.33473824  0.59979119  0.23666609     0.30600
H1813       H  0.37395615  0.66167601  0.23116822     0.33900
H1814       H  0.34725541  0.64570571  0.23736825     0.30600
H1815       H  0.44610434  0.57863606  0.22141049     0.38400
H1816       H  0.45012410  0.57466725  0.23765550     0.33900
C1817       C  0.54164401  0.61887715  0.20253250    -0.19800
C1818       C  0.56007729  0.63255259  0.19517625     0.36400
C1819       C  0.59342685  0.63134388  0.19554338    -0.25800
C1820       C  0.60874909  0.61718473  0.20336425     0.02800
C1821       C  0.59064576  0.60427287  0.21131949     0.27600
C1822       C  0.55717047  0.60517006  0.21077310    -0.24900
N1823       N  0.54488419  0.64770182  0.18743744    -0.82300
H1824       H  0.60764497  0.64143473  0.18964821     0.13400
C1825       C  0.64382799  0.61584816  0.20266263     0.02800
N1826       N  0.60629533  0.59049910  0.21998251    -0.80900
H1827       H  0.54316187  0.59484774  0.21656408     0.18200
C1828       C  0.66236120  0.62870595  0.21025907    -0.25700
C1829       C  0.69563929  0.62952792  0.20865511     0.36300
C1830       C  0.71069286  0.61671169  0.19950846    -0.19800
C1831       C  0.69185998  0.60358393  0.19212494    -0.25000
C1832       C  0.65857691  0.60326849  0.19344715     0.27700
H1833       H  0.65063562  0.63864594  0.21709801     0.13400
N1834       N  0.71389996  0.64383346  0.21589821    -0.82300
H1835       H  0.70313188  0.59366967  0.18514873     0.18300
N1836       N  0.63955618  0.59085274  0.18507577    -0.80900
H1837       H  0.69920731  0.65202913  0.22218447     0.33900
H1838       H  0.72353360  0.65382919  0.20908487     0.38400
H1839       H  0.65401083  0.58298989  0.17850735     0.33900
H1840       H  0.62825117  0.58034006  0.19102504     0.30600
H1841       H  0.58951367  0.58233148  0.22534364     0.33900
H1842       H  0.61882863  0.58036994  0.21418597     0.30600
H1843       H  0.53262671  0.65699556  0.19393197     0.38400
H1844       H  0.56182888  0.65646724  0.18261109     0.33900
C1845       C  0.44354667  0.62254382  0.17468876    -0.19800
C1846       C  0.45297011  0.63768126  0.16592067     0.36400
C1847       C  0.43933184  0.63880211  0.15334246    -0.25800
C1848       C  0.41615786  0.62514499  0.14937842     0.02800
C1849       C  0.40583215  0.61037423  0.15825168     0.27600
C1850       C  0.41969861  0.60918919  0.17084588    -0.24900
N1851       N  0.47601513  0.65213294  0.16984650    -0.82300
H1852       H  0.44711116  0.65027362  0.14657432     0.13400
C1853       C  0.40373758  0.62618438  0.13574411     0.02800
N1854       N  0.38138701  0.59667713  0.15440504    -0.80900
H1855       H  0.41223834  0.59765489  0.17762235     0.18200
C1856       C  0.41065176  0.61076941  0.12697029    -0.25700
C1857       C  0.40112953  0.61175684  0.11370337     0.36300
C1858       C  0.38386754  0.62842018  0.10921264    -0.19800
C1859       C  0.37686463  0.64378638  0.11806814    -0.25000
C1860       C  0.38649812  0.64278578  0.13131308     0.27700
H1861       H  0.42428532  0.59816937  0.13043043     0.13400
N1862       N  0.40981594  0.59621920  0.10472742    -0.82300
H1863       H  0.36343131  0.65650802  0.11468887     0.18300
N1864       N  0.37878986  0.65848931  0.14031400    -0.80900
H1865       H  0.42236535  0.58505252  0.10963357     0.33900
H1866       H  0.42545219  0.60224960  0.09775317     0.38400
H1867       H  0.36607453  0.66967010  0.13549458     0.33900
H1868       H  0.36359151  0.65265581  0.14752292     0.30600
H1869       H  0.37655392  0.58671393  0.16205744     0.33900
H1870       H  0.36050332  0.60479736  0.15287004     0.30600
H1871       H  0.49504978  0.65159583  0.16318577     0.38400
H1872       H  0.46548934  0.66611586  0.16911867     0.33900
loop_ 
_geom_bond_atom_site_label_1 
_geom_bond_atom_site_label_2 
_geom_bond_distance 
_geom_bond_site_symmetry_2 
_ccdc_geom_bond_type 
C1            C2   1.400       .  A
C1            C6   1.402       .  A
C1         C1845   1.482       .  S
C2            C3   1.403       .  A
C2            H7   1.084       .  S
C3            C4   1.404       .  A
C3         C1789   1.478       .  S
C4            C5   1.406       .  A
C4            H8   1.084       .  S
C5            C6   1.405       .  A
C5         C1817   1.488       .  S
C6            H9   1.084       .  S
N10          N11   1.321       .  A
N10          C14   1.343       .  A
N10         Cu18   2.062       .  S
N11          C12   1.345       .  A
N11         Cu17   2.072       .  S
C12          C13   1.386       .  A
C12          H15   1.082       .  S
C13          C14   1.383       .  A
C13        C1733   1.480       .  S
C14          H16   1.082       .  S
Cu17         N20   2.072       .  S
Cu18         N28   2.062       .  S
Cu19         N21   2.075       .  S
Cu19         N27   2.075       .  S
N20          N21   1.322       .  A
N20          C24   1.344       .  A
N21          C22   1.344       .  A
C22          C23   1.385       .  A
C22          H25   1.082       .  S
C23          C24   1.385       .  A
C23        C1858   1.482       .  S
C24          H26   1.082       .  S
N27          N28   1.321       .  A
N27          C31   1.345       .  A
N28          C29   1.343       .  A
C29          C30   1.383       .  A
C29          H32   1.082       .  S
C30          C31   1.386       .  A
C30        C1774   1.480       .  S
C31          H33   1.082       .  S
C34          C35   1.403       .  A
C34          C39   1.403       .  A
C34        C1718   1.484       .  S
C35          C36   1.405       .  A
C35          H40   1.083       .  S
C36          C37   1.404       .  A
C36        C1690   1.482       .  S
C37          C38   1.404       .  A
C37          H41   1.083       .  S
C38          C39   1.406       .  A
C38        C1830   1.491       .  S
C39          H42   1.084       .  S
N43          N44   1.323       .  A
N43          C47   1.346       .  A
N43         Cu51   2.080       .  S
N44          C45   1.348       .  A
N44         Cu50   2.091       .  S
C45          C46   1.388       .  A
C45          H48   1.082       .  S
C46          C47   1.385       .  A
C46        C1621   1.488       .  S
C47          H49   1.082   1_554  S
Cu50         N53   2.090       .  S
Cu51         N61   2.080       .  S
Cu52         N54   2.064       .  S
Cu52         N60   2.064       .  S
N53          N54   1.322       .  A
N53          C57   1.347       .  A
N54          C55   1.344       .  A
C55          C56   1.383       .  A
C55          H58   1.082       .  S
C56          C57   1.389       .  A
C56        C1705   1.484       .  S
C57          H59   1.082       .  S
N60          N61   1.320       .  A
N60          C64   1.342       .  A
N61          C62   1.346       .  A
C62          C63   1.389       .  A
C62          H65   1.082   1_554  S
C63          C64   1.386       .  A
C63        C1662   1.487       .  S
C64          H66   1.081       .  S
C67          C68   1.404       .  A
C67          C72   1.403       .  A
C67        C1593   1.483       .  S
C68          C69   1.402       .  A
C68          H73   1.084       .  S
C69          C70   1.400       .  A
C69        C1565   1.477       .  S
C70          C71   1.401       .  A
C70          H74   1.084       .  S
C71          C72   1.402       .  A
C71        C1537   1.474       .  S
C72          H75   1.084       .  S
N76          N77   1.321       .  A
N76          C80   1.345       .  A
N76         Cu84   2.074       .  S
N77          C78   1.345       .  A
N77         Cu83   2.068       .  S
C78          C79   1.384       .  A
C78          H81   1.082       .  S
C79          C80   1.385       .  A
C79        C1509   1.479       .  S
C80          H82   1.082       .  S
Cu83         N86   2.068       .  S
Cu84         N94   2.074       .  S
Cu85         N87   2.071       .  S
Cu85         N93   2.071       .  S
N86          N87   1.321       .  A
N86          C90   1.341       .  A
N87          C88   1.346       .  A
C88          C89   1.387       .  A
C88          H91   1.082       .  S
C89          C90   1.384       .  A
C89        C1606   1.482       .  S
C90          H92   1.082       .  S
N93          N94   1.321       .  A
N93          C97   1.343       .  A
N94          C95   1.344       .  A
C95          C96   1.388       .  A
C95          H98   1.081       .  S
C96          C97   1.386       .  A
C96        C1761   1.488       .  S
C97          H99   1.082       .  S
C100        C101   1.402       .  A
C100        C105   1.401       .  A
C100       C1481   1.482       .  S
C101        C102   1.406       .  A
C101        H106   1.083       .  S
C102        C103   1.406       .  A
C102       C1453   1.485       .  S
C103        C104   1.403       .  A
C103        H107   1.084       .  S
C104        C105   1.401       .  A
C104       C1578   1.476   1_655  S
C105        H108   1.084       .  S
N109        N110   1.321       .  A
N109        C113   1.345       .  A
N109       Cu117   2.072       .  S
N110        C111   1.344       .  A
N110       Cu116   2.071       .  S
C111        C112   1.384       .  A
C111        H114   1.082       .  S
C112        C113   1.385       .  A
C112       C1425   1.480       .  S
C113        H115   1.082       .  S
Cu116       N119   2.071       .  S
Cu117       N127   2.072       .  S
Cu118       N120   2.073       .  S
Cu118       N126   2.073       .  S
N119        N120   1.322       .  A
N119        C123   1.343       .  A
N120        C121   1.345       .  A
C121        C122   1.386       .  A
C121        H124   1.082       .  S
C122        C123   1.384       .  A
C122       C1494   1.481       .  S
C123        H125   1.082       .  S
N126        N127   1.322       .  A
N126        C130   1.345       .  A
N127        C128   1.344       .  A
C128        C129   1.386       .  A
C128        H131   1.082       .  S
C129        C130   1.387       .  A
C129       C1649   1.484       .  S
C130        H132   1.081       .  S
C133        C134   1.404       .  A
C133        C138   1.404       .  A
C133       C1397   1.485       .  S
C134        C135   1.407       .  A
C134        H139   1.083       .  S
C135        C136   1.405       .  A
C135       C1354   1.489       .  S
C136        C137   1.400       .  A
C136        H140   1.083       .  S
C137        C138   1.403       .  A
C137       C1369   1.481       .  S
C138        H141   1.084       .  S
N142        N143   1.321       .  A
N142        C146   1.343       .  A
N142       Cu150   2.073       .  S
N143        C144   1.345       .  A
N143       Cu149   2.072       .  S
C144        C145   1.386       .  A
C144        H147   1.081       .  S
C145        C146   1.386       .  A
C145       C1746   1.484       .  S
C146        H148   1.082       .  S
Cu149       N152   2.072       .  S
Cu150       N160   2.074       .  S
Cu151       N153   2.082       .  S
Cu151       N159   2.082       .  S
N152        N153   1.321       .  A
N152        C156   1.344       .  A
N153        C154   1.347       .  A
C154        C155   1.389       .  A
C154        H157   1.081       .  S
C155        C156   1.387       .  A
C155       C1410   1.488       .  S
C156        H158   1.082       .  S
N159        N160   1.322       .  A
N159        C163   1.346       .  A
N160        C161   1.345       .  A
C161        C162   1.386       .  A
C161        H164   1.082       .  S
C162        C163   1.387       .  A
C162       C1326   1.486       .  S
C163        H165   1.082       .  S
C166        C167   1.407       .  A
C166        C171   1.406       .  A
C166       C1298   1.490       .  S
C167        C168   1.405       .  A
C167        H172   1.083       .  S
C168        C169   1.401       .  A
C168       C1257   1.479       .  S
C169        C170   1.401       .  A
C169        H173   1.084       .  S
C170        C171   1.404       .  A
C170       C1382   1.482       .  S
C171        H174   1.084       .  S
N175        N176   1.322       .  A
N175        C179   1.345       .  A
N175       Cu183   2.074       .  S
N176        C177   1.345       .  A
N176       Cu182   2.073       .  S
C177        C178   1.384       .  A
C177        H180   1.082       .  S
C178        C179   1.385       .  A
C178       C1242   1.480       .  S
C179        H181   1.082       .  S
Cu182       N185   2.074       .  S
Cu183       N193   2.075       .  S
Cu184       N186   2.087       .  S
Cu184       N192   2.087       .  S
N185        N186   1.322       .  A
N185        C189   1.345       .  A
N186        C187   1.347       .  A
C187        C188   1.388       .  A
C187        H190   1.082       .  S
C188        C189   1.385       .  A
C188       C1285   1.486       .  S
C189        H191   1.082       .  S
N192        N193   1.320       .  A
N192        C196   1.347       .  A
N193        C194   1.344       .  A
C194        C195   1.390       .  A
C194        H197   1.081       .  S
C195        C196   1.394       .  A
C195       C1634   1.499       .  S
C196        H198   1.080       .  S
C199        C200   1.403       .  A
C199        C204   1.401       .  A
C199       C1214   1.481       .  S
C200        C201   1.404       .  A
C200        H205   1.084       .  S
C201        C202   1.403       .  A
C201       C1173   1.481   1_455  S
C202        C203   1.404       .  A
C202        H206   1.084       .  S
C203        C204   1.403       .  A
C203       C1145   1.479       .  S
C204        H207   1.084       .  S
N208        N209   1.321       .  A
N208        C212   1.346       .  A
N208       Cu216   2.084       .  S
N209        C210   1.342       .  A
N209       Cu215   2.065       .  S
C210        C211   1.387       .  A
C210        H213   1.080       .  S
C211        C212   1.391       .  A
C211       C1522   1.491       .  S
C212        H214   1.081       .  S
Cu215       N218   2.064       .  S
Cu216       N226   2.085       .  S
Cu217       N219   2.071       .  S
Cu217       N225   2.072       .  S
N218        N219   1.320       .  A
N218        C222   1.343       .  A
N219        C220   1.345       .  A
C220        C221   1.386       .  A
C220        H223   1.082       .  S
C221        C222   1.385       .  A
C221       C1201   1.483       .  S
C222        H224   1.081       .  S
N225        N226   1.322       .  A
N225        C229   1.344       .  A
N226        C227   1.347       .  A
C227        C228   1.388       .  A
C227        H230   1.081       .  S
C228        C229   1.385       .  A
C228       C1313   1.486       .  S
C229        H231   1.082       .  S
C232        C233   1.402       .  A
C232        C237   1.403       .  A
C232       C1117   1.483       .  S
C233        C234   1.402       .  A
C233        H238   1.084       .  S
C234        C235   1.402       .  A
C234       C1186   1.482       .  S
C235        C236   1.406       .  A
C235        H239   1.084       .  S
C236        C237   1.405       .  A
C236       C1089   1.486       .  S
C237        H240   1.083       .  S
N241        N242   1.323       .  A
N241        C245   1.345       .  A
N241       Cu249   2.076       .  S
N242        C243   1.345       .  A
N242       Cu248   2.076       .  S
C243        C244   1.383       .  A
C243        H246   1.082       .  S
C244        C245   1.383       .  A
C244       C1438   1.477       .  S
C245        H247   1.082   1_554  S
Cu248       N251   2.075       .  S
Cu249       N259   2.075       .  S
Cu250       N252   2.061       .  S
Cu250       N258   2.062       .  S
N251        N252   1.319       .  A
N251        C255   1.344       .  A
N252        C253   1.342       .  A
C253        C254   1.389       .  A
C253        H256   1.081       .  S
C254        C255   1.392       .  A
C254       C1130   1.493       .  S
C255        H257   1.080       .  S
N258        N259   1.321       .  A
N258        C262   1.343       .  A
N259        C260   1.346       .  A
C260        C261   1.385       .  A
C260        H263   1.082   1_554  S
C261        C262   1.382       .  A
C261       C1229   1.477       .  S
C262        H264   1.082       .  S
C265        C266   1.402       .  A
C265        C270   1.403       .  A
C265       C1074   1.484       .  S
C266        C267   1.404       .  A
C266        H271   1.084       .  S
C267        C268   1.405       .  A
C267       C1102   1.482       .  S
C268        C269   1.405       .  A
C268        H272   1.083       .  S
C269        C270   1.405       .  A
C269       C1033   1.487       .  S
C270        H273   1.084       .  S
N274        N275   1.321       .  A
N274        C278   1.345       .  A
N274       Cu282   2.071       .  S
N275        C276   1.345       .  A
N275       Cu281   2.076       .  S
C276        C277   1.386       .  A
C276        H279   1.082       .  S
C277        C278   1.384       .  A
C277        C977   1.481       .  S
C278        H280   1.082       .  S
Cu281       N284   2.076       .  S
Cu282       N292   2.071       .  S
Cu283       N285   2.080       .  S
Cu283       N291   2.080       .  S
N284        N285   1.322       .  A
N284        C288   1.344       .  A
N285        C286   1.347       .  A
C286        C287   1.386       .  A
C286        H289   1.082       .  S
C287        C288   1.385       .  A
C287       C1061   1.484       .  S
C288        H290   1.082       .  S
N291        N292   1.322       .  A
N291        C295   1.345       .  A
N292        C293   1.344       .  A
C293        C294   1.387       .  A
C293        H296   1.081       .  S
C294        C295   1.388       .  A
C294       C1005   1.488       .  S
C295        H297   1.082       .  S
C298        C299   1.405       .  A
C298        C303   1.404       .  A
C298        C962   1.490       .  S
C299        C300   1.404       .  A
C299        H304   1.083       .  S
C300        C301   1.404       .  A
C300       C1046   1.489       .  S
C301        C302   1.404       .  A
C301        H305   1.084       .  S
C302        C303   1.404       .  A
C302       C1158   1.480       .  S
C303        H306   1.084       .  S
N307        N308   1.321       .  A
N307        C311   1.344       .  A
N307       Cu315   2.071       .  S
N308        C309   1.345       .  A
N308       Cu314   2.075       .  S
C309        C310   1.387       .  A
C309        H312   1.081       .  S
C310        C311   1.385       .  A
C310        C906   1.485       .  S
C311        H313   1.082       .  S
Cu314       N317   2.075       .  S
Cu315       N325   2.071       .  S
Cu316       N318   2.075       .  S
Cu316       N324   2.075       .  S
N317        N318   1.320       .  A
N317        C321   1.343       .  A
N318        C319   1.344       .  A
C319        C320   1.392       .  A
C319        H322   1.079       .  S
C320        C321   1.392       .  A
C320        C949   1.499       .  S
C321        H323   1.081       .  S
N324        N325   1.321       .  A
N324        C328   1.345       .  A
N325        C326   1.344       .  A
C326        C327   1.388       .  A
C326        H329   1.081       .  S
C327        C328   1.388       .  A
C327        C921   1.489       .  S
C328        H330   1.082       .  S
C331        C332   1.405       .  A
C331        C336   1.403       .  A
C331        C878   1.487       .  S
C332        C333   1.406       .  A
C332        H337   1.084       .  S
C333        C334   1.404       .  A
C333        C850   1.489   1_455  S
C334        C335   1.404       .  A
C334        H338   1.083       .  S
C335        C336   1.403       .  A
C335       C1341   1.483       .  S
C336        H339   1.083       .  S
N340        N341   1.322       .  A
N340        C344   1.346       .  A
N340       Cu348   2.075       .  S
N341        C342   1.342       .  A
N341       Cu347   2.068       .  S
C342        C343   1.382       .  A
C342        H345   1.082       .  S
C343        C344   1.385       .  A
C343        C809   1.478       .  S
C344        H346   1.082       .  S
Cu347       N350   2.068       .  S
Cu348       N358   2.075       .  S
Cu349       N351   2.070       .  S
Cu349       N357   2.070       .  S
N350        N351   1.320       .  A
N350        C354   1.344       .  A
N351        C352   1.344       .  A
C352        C353   1.386       .  A
C352        H355   1.082       .  S
C353        C354   1.385       .  A
C353        C865   1.481       .  S
C354        H356   1.082       .  S
N357        N358   1.322       .  A
N357        C361   1.343       .  A
N358        C359   1.345       .  A
C359        C360   1.388       .  A
C359        H362   1.081       .  S
C360        C361   1.386       .  A
C360        C934   1.486       .  S
C361        H363   1.082       .  S
C364        C365   1.404       .  A
C364        C369   1.404       .  A
C364        C794   1.485       .  S
C365        C366   1.406       .  A
C365        H370   1.084       .  S
C366        C367   1.407       .  A
C366       C1270   1.485       .  S
C367        C368   1.401       .  A
C367        H371   1.084       .  S
C368        C369   1.400       .  A
C368        C837   1.476       .  S
C369        H372   1.084       .  S
N373        N374   1.322       .  A
N373        C377   1.344       .  A
N373       Cu381   2.074       .  S
N374        C375   1.345       .  A
N374       Cu380   2.072       .  S
C375        C376   1.384       .  A
C375        H378   1.082       .  S
C376        C377   1.383       .  A
C376        C753   1.479       .  S
C377        H379   1.082       .  S
Cu380       N383   2.072       .  S
Cu381       N391   2.074       .  S
Cu382       N384   2.070       .  S
Cu382       N390   2.069       .  S
N383        N384   1.321       .  A
N383        C387   1.344       .  A
N384        C385   1.344       .  A
C385        C386   1.386       .  A
C385        H388   1.081       .  S
C386        C387   1.386       .  A
C386        C781   1.484       .  S
C387        H389   1.082       .  S
N390        N391   1.322       .  A
N390        C394   1.343       .  A
N391        C392   1.346       .  A
C392        C393   1.386       .  A
C392        H395   1.082       .  S
C393        C394   1.384       .  A
C393       C1018   1.481       .  S
C394        H396   1.082       .  S
C397        C398   1.404       .  A
C397        C402   1.402       .  A
C397        C725   1.486       .  S
C398        C399   1.405       .  A
C398        H403   1.084       .  S
C399        C400   1.406       .  A
C399       C1802   1.482       .  S
C400        C401   1.402       .  A
C400        H404   1.084       .  S
C401        C402   1.401       .  A
C401        C710   1.481       .  S
C402        H405   1.084       .  S
N406        N407   1.321       .  A
N406        C410   1.344       .  A
N406       Cu414   2.070       .  S
N407        C408   1.344       .  A
N407       Cu413   2.067       .  S
C408        C409   1.385       .  A
C408        H411   1.082       .  S
C409        C410   1.384       .  A
C409        C822   1.480       .  S
C410        H412   1.082       .  S
Cu413       N416   2.067       .  S
Cu414       N424   2.071       .  S
Cu415       N417   2.081       .  S
Cu415       N423   2.081       .  S
N416        N417   1.322       .  A
N416        C420   1.344       .  A
N417        C418   1.345       .  A
C418        C419   1.386       .  A
C418        H421   1.082       .  S
C419        C420   1.383       .  A
C419        C738   1.480       .  S
C420        H422   1.082       .  S
N423        N424   1.322       .  A
N423        C427   1.346       .  A
N424        C425   1.344       .  A
C425        C426   1.383       .  A
C425        H428   1.082       .  S
C426        C427   1.386       .  A
C426        C669   1.480       .  S
C427        H429   1.082       .  S
C430        C431   1.404       .  A
C430        C435   1.406       .  A
C430        C641   1.488       .  S
C431        C432   1.401       .  A
C431        H436   1.084       .  S
C432        C433   1.401       .  A
C432       C1677   1.477       .  S
C433        C434   1.403   1_655  A
C433        H437   1.084       .  S
C434        C435   1.407   1_455  A
C434        C697   1.484       .  S
C435        H438   1.084   1_655  S
N439        N440   1.320       .  A
N439        C443   1.343       .  A
N439       Cu447   2.066       .  S
N440        C441   1.345       .  A
N440       Cu446   2.080       .  S
C441        C442   1.390       .  A
C441        H444   1.081       .  S
C442        C443   1.387       .  A
C442        C766   1.490       .  S
C443        H445   1.082       .  S
Cu446       N449   2.081       .  S
Cu447       N457   2.066       .  S
Cu448       N450   2.072       .  S
Cu448       N456   2.072       .  S
N449        N450   1.323       .  A
N449        C453   1.346       .  A
N450        C451   1.345       .  A
C451        C452   1.383       .  A
C451        H454   1.082       .  S
C452        C453   1.385       .  A
C452        C654   1.479       .  S
C453        H455   1.082       .  S
N456        N457   1.321       .  A
N456        C460   1.345       .  A
N457        C458   1.343       .  A
C458        C459   1.384       .  A
C458        H461   1.082       .  S
C459        C460   1.385       .  A
C459        C613   1.480       .  S
C460        H462   1.082       .  S
C463        C464   1.404       .  A
C463        C468   1.402       .  A
C463        C585   1.485       .  S
C464        C465   1.407       .  A
C464        H469   1.083       .  S
C465        C466   1.406       .  A
C465       C1466   1.485       .  S
C466        C467   1.402       .  A
C466        H470   1.084       .  S
C467        C468   1.401       .  A
C467        C557   1.482       .  S
C468        H471   1.084       .  S
N472        N473   1.322       .  A
N472        C476   1.345       .  A
N472       Cu480   2.076       .  S
N473        C474   1.345       .  A
N473       Cu479   2.074       .  S
C474        C475   1.385       .  A
C474        H477   1.082       .  S
C475        C476   1.386       .  A
C475        C990   1.483   1_565  S
C476        H478   1.082       .  S
Cu479       N482   2.074       .  S
Cu480       N490   2.076       .  S
Cu481       N483   2.072       .  S
Cu481       N489   2.071       .  S
N482        N483   1.322       .  A
N482        C486   1.344       .  A
N483        C484   1.345       .  A
C484        C485   1.386       .  A
C484        H487   1.082       .  S
C485        C486   1.384       .  A
C485        C598   1.482       .  S
C486        H488   1.082       .  S
N489        N490   1.322       .  A
N489        C493   1.344       .  A
N490        C491   1.344       .  A
C491        C492   1.385       .  A
C491        H494   1.082       .  S
C492        C493   1.384       .  A
C492        C626   1.480       .  S
C493        H495   1.082       .  S
C496        C497   1.401       .  A
C496        C501   1.403       .  A
C496        C529   1.481       .  S
C497        C498   1.400       .  A
C497        H502   1.084       .  S
C498        C499   1.401       .  A
C498       C1550   1.472       .  S
C499        C500   1.403       .  A
C499        H503   1.084       .  S
C500        C501   1.404       .  A
C500        C570   1.481       .  S
C501        H504   1.084       .  S
N505        N506   1.321       .  A
N505        C509   1.345       .  A
N505       Cu513   2.078       .  S
N506        C507   1.343       .  A
N506       Cu512   2.067       .  S
C507        C508   1.386       .  A
C507        H510   1.081       .  S
C508        C509   1.388       .  A
C508        C893   1.486       .  S
C509        H511   1.082       .  S
Cu512       N515   2.066       .  S
Cu513       N523   2.078       .  S
Cu514       N516   2.069       .  S
Cu514       N522   2.070       .  S
N515        N516   1.322       .  A
N515        C519   1.344       .  A
N516        C517   1.343       .  A
C517        C518   1.382       .  A
C517        H520   1.082       .  S
C518        C519   1.382       .  A
C518        C542   1.472       .  S
C519        H521   1.082       .  S
N522        N523   1.322       .  A
N522        C526   1.345       .  A
N523        C524   1.344       .  A
C524        C525   1.386       .  A
C524        H527   1.082       .  S
C525        C526   1.385       .  A
C525        C682   1.483       .  S
C526        H528   1.082       .  S
C529        C530   1.414       .  A
C529        C534   1.404       .  A
C530        C531   1.405       .  A
C530        N535   1.438       .  S
C531        C532   1.399       .  A
C531        H536   1.084       .  S
C532        C533   1.407       .  A
C532        C537   1.472       .  S
C533        C534   1.402       .  A
C533        N538   1.438       .  S
C534        H539   1.084       .  S
N535        H555   1.046       .  S
N535        H556   1.046       .  S
C537        C540   1.400       .  A
C537        C544   1.407       .  A
N538        H553   1.046       .  S
N538        H554   1.045       .  S
C540        C541   1.403       .  A
C540        H545   1.084       .  S
C541        C542   1.411       .  A
C541        N546   1.438       .  S
C542        C543   1.403       .  A
C543        C544   1.403       .  A
C543        H547   1.084       .  S
C544        N548   1.438       .  S
N546        H549   1.046       .  S
N546        H550   1.046       .  S
N548        H551   1.046       .  S
N548        H552   1.045       .  S
C557        C558   1.413       .  A
C557        C562   1.404       .  A
C558        C559   1.405       .  A
C558        N563   1.438       .  S
C559        C560   1.402       .  A
C559        H564   1.084       .  S
C560        C561   1.408       .  A
C560        C565   1.478       .  S
C561        C562   1.403       .  A
C561        N566   1.438       .  S
C562        H567   1.084       .  S
N563        H583   1.046       .  S
N563        H584   1.046       .  S
C565        C568   1.401       .  A
C565        C572   1.409       .  A
N566        H581   1.046       .  S
N566        H582   1.046       .  S
C568        C569   1.406       .  A
C568        H573   1.084       .  S
C569        C570   1.413       .  A
C569        N574   1.438       .  S
C570        C571   1.403       .  A
C571        C572   1.402       .  A
C571        H575   1.084       .  S
C572        N576   1.438       .  S
N574        H577   1.046       .  S
N574        H578   1.046       .  S
N576        H579   1.046       .  S
N576        H580   1.046       .  S
C585        C586   1.414       .  A
C585        C590   1.405       .  A
C586        C587   1.407       .  A
C586        N591   1.438       .  S
C587        C588   1.401       .  A
C587        H592   1.084       .  S
C588        C589   1.407       .  A
C588        C593   1.476       .  S
C589        C590   1.403       .  A
C589        N594   1.438       .  S
C590        H595   1.084       .  S
N591        H611   1.045       .  S
N591        H612   1.046       .  S
C593        C596   1.400       .  A
C593        C600   1.406       .  A
N594        H609   1.045       .  S
N594        H610   1.046       .  S
C596        C597   1.405       .  A
C596        H601   1.084       .  S
C597        C598   1.414       .  A
C597        N602   1.438       .  S
C598        C599   1.406       .  A
C599        C600   1.406       .  A
C599        H603   1.083       .  S
C600        N604   1.438       .  S
N602        H605   1.046       .  S
N602        H606   1.046       .  S
N604        H607   1.045       .  S
N604        H608   1.046       .  S
C613        C614   1.413       .  A
C613        C618   1.405       .  A
C614        C615   1.405       .  A
C614        N619   1.437       .  S
C615        C616   1.402       .  A
C615        H620   1.084       .  S
C616        C617   1.408       .  A
C616        C621   1.478       .  S
C617        C618   1.403       .  A
C617        N622   1.438       .  S
C618        H623   1.083       .  S
N619        H639   1.046       .  S
N619        H640   1.046       .  S
C621        C624   1.401       .  A
C621        C628   1.408       .  A
N622        H637   1.046       .  S
N622        H638   1.046       .  S
C624        C625   1.405       .  A
C624        H629   1.084       .  S
C625        C626   1.413       .  A
C625        N630   1.437       .  S
C626        C627   1.405       .  A
C627        C628   1.404       .  A
C627        H631   1.083       .  S
C628        N632   1.438       .  S
N630        H633   1.046       .  S
N630        H634   1.046       .  S
N632        H635   1.046       .  S
N632        H636   1.046       .  S
C641        C642   1.415       .  A
C641        C646   1.406       .  A
C642        C643   1.405       .  A
C642        N647   1.438       .  S
C643        C644   1.400       .  A
C643        H648   1.084       .  S
C644        C645   1.408       .  A
C644        C649   1.478       .  S
C645        C646   1.407       .  A
C645        N650   1.438       .  S
C646        H651   1.084       .  S
N647        H667   1.045       .  S
N647        H668   1.046       .  S
C649        C652   1.401       .  A
C649        C656   1.408       .  A
N650        H665   1.046       .  S
N650        H666   1.045       .  S
C652        C653   1.406       .  A
C652        H657   1.084       .  S
C653        C654   1.412       .  A
C653        N658   1.437       .  S
C654        C655   1.404       .  A
C655        C656   1.406       .  A
C655        H659   1.084       .  S
C656        N660   1.438       .  S
N658        H661   1.046       .  S
N658        H662   1.046       .  S
N660        H663   1.046       .  S
N660        H664   1.045       .  S
C669        C670   1.413       .  A
C669        C674   1.403       .  A
C670        C671   1.406       .  A
C670        N675   1.438       .  S
C671        C672   1.402       .  A
C671        H676   1.084       .  S
C672        C673   1.410       .  A
C672        C677   1.482       .  S
C673        C674   1.405       .  A
C673        N678   1.438       .  S
C674        H679   1.084       .  S
N675        H695   1.046       .  S
N675        H696   1.046       .  S
C677        C680   1.402       .  A
C677        C684   1.408       .  A
N678        H693   1.046       .  S
N678        H694   1.045       .  S
C680        C681   1.407       .  A
C680        H685   1.084       .  S
C681        C682   1.414       .  A
C681        N686   1.437       .  S
C682        C683   1.405       .  A
C683        C684   1.405       .  A
C683        H687   1.083       .  S
C684        N688   1.438       .  S
N686        H689   1.046       .  S
N686        H690   1.046       .  S
N688        H691   1.046       .  S
N688        H692   1.046       .  S
C697        C698   1.411       .  A
C697        C702   1.405       .  A
C698        C699   1.405       .  A
C698        N703   1.438       .  S
C699        C700   1.403       .  A
C699        H704   1.084       .  S
C700        C701   1.410       .  A
C700        C705   1.484       .  S
C701        C702   1.405       .  A
C701        N706   1.438       .  S
C702        H707   1.084       .  S
N703        H723   1.046       .  S
N703        H724   1.046       .  S
C705        C708   1.402       .  A
C705        C712   1.411       .  A
N706        H721   1.046       .  S
N706        H722   1.045       .  S
C708        C709   1.403       .  A
C708        H713   1.084       .  S
C709        C710   1.411       .  A
C709        N714   1.438       .  S
C710        C711   1.404       .  A
C711        C712   1.407       .  A
C711        H715   1.084       .  S
C712        N716   1.437       .  S
N714        H717   1.046       .  S
N714        H718   1.045       .  S
N716        H719   1.046       .  S
N716        H720   1.046       .  S
C725        C726   1.416       .  A
C725        C730   1.405       .  A
C726        C727   1.405       .  A
C726        N731   1.438       .  S
C727        C728   1.400       .  A
C727        H732   1.084       .  S
C728        C729   1.407       .  A
C728        C733   1.475       .  S
C729        C730   1.404       .  A
C729        N734   1.438       .  S
C730        H735   1.083       .  S
N731        H751   1.046       .  S
N731        H752   1.046       .  S
C733        C736   1.400       .  A
C733        C740   1.408       .  A
N734        H749   1.046       .  S
N734        H750   1.045       .  S
C736        C737   1.406       .  A
C736        H741   1.084       .  S
C737        C738   1.414       .  A
C737        N742   1.437       .  S
C738        C739   1.404       .  A
C739        C740   1.403       .  A
C739        H743   1.083       .  S
C740        N744   1.438       .  S
N742        H745   1.046       .  S
N742        H746   1.045       .  S
N744        H747   1.046       .  S
N744        H748   1.045       .  S
C753        C754   1.411       .  A
C753        C758   1.402       .  A
C754        C755   1.406       .  A
C754        N759   1.438       .  S
C755        C756   1.405       .  A
C755        H760   1.083       .  S
C756        C757   1.412       .  A
C756        C761   1.488       .  S
C757        C758   1.405       .  A
C757        N762   1.438       .  S
C758        H763   1.084       .  S
N759        H779   1.046       .  S
N759        H780   1.046       .  S
C761        C764   1.403       .  A
C761        C768   1.410       .  A
N762        H777   1.046       .  S
N762        H778   1.045       .  S
C764        C765   1.406       .  A
C764        H769   1.084       .  S
C765        C766   1.415       .  A
C765        N770   1.437       .  S
C766        C767   1.407       .  A
C767        C768   1.405       .  A
C767        H771   1.082       .  S
C768        N772   1.438       .  S
N770        H773   1.046       .  S
N770        H774   1.046       .  S
N772        H775   1.046       .  S
N772        H776   1.046       .  S
C781        C782   1.415       .  A
C781        C786   1.406       .  A
C782        C783   1.406       .  A
C782        N787   1.437       .  S
C783        C784   1.400       .  A
C783        H788   1.084       .  S
C784        C785   1.407       .  A
C784        C789   1.476       .  S
C785        C786   1.404       .  A
C785        N790   1.438       .  S
C786        H791   1.083       .  S
N787        H807   1.045       .  S
N787        H808   1.046       .  S
C789        C792   1.399       .  A
C789        C796   1.408       .  A
N790        H805   1.045       .  S
N790        H806   1.045       .  S
C792        C793   1.403       .  A
C792        H797   1.084       .  S
C793        C794   1.413       .  A
C793        N798   1.438       .  S
C794        C795   1.407       .  A
C795        C796   1.407       .  A
C795        H799   1.084       .  S
C796        N800   1.438       .  S
N798        H801   1.046       .  S
N798        H802   1.046       .  S
N800        H803   1.046       .  S
N800        H804   1.045       .  S
C809        C810   1.412       .  A
C809        C814   1.404       .  A
C810        C811   1.406       .  A
C810        N815   1.437       .  S
C811        C812   1.401       .  A
C811        H816   1.084       .  S
C812        C813   1.407       .  A
C812        C817   1.475       .  S
C813        C814   1.403       .  A
C813        N818   1.438       .  S
C814        H819   1.083       .  S
N815        H835   1.046       .  S
N815        H836   1.046       .  S
C817        C820   1.400       .  A
C817        C824   1.407       .  A
N818        H833   1.046       .  S
N818        H834   1.045       .  S
C820        C821   1.405       .  A
C820        H825   1.084       .  S
C821        C822   1.414       .  A
C821        N826   1.437       .  S
C822        C823   1.405       .  A
C823        C824   1.405       .  A
C823        H827   1.083       .  S
C824        N828   1.438       .  S
N826        H829   1.046       .  S
N826        H830   1.046       .  S
N828        H831   1.045       .  S
N828        H832   1.046       .  S
C837        C838   1.409       .  A
C837        C842   1.401       .  A
C838        C839   1.407       .  A
C838        N843   1.437       .  S
C839        C840   1.403       .  A
C839        H844   1.084       .  S
C840        C841   1.410       .  A
C840        C845   1.481       .  S
C841        C842   1.405       .  A
C841        N846   1.438       .  S
C842        H847   1.084       .  S
N843        H863   1.045       .  S
N843        H864   1.046       .  S
C845        C848   1.401       .  A
C845        C852   1.409       .  A
N846        H861   1.045       .  S
N846        H862   1.046       .  S
C848        C849   1.407       .  A
C848        H853   1.084       .  S
C849        C850   1.416       .  A
C849        N854   1.438       .  S
C850        C851   1.406       .  A
C851        C852   1.405       .  A
C851        H855   1.084       .  S
C852        N856   1.438       .  S
N854        H857   1.046       .  S
N854        H858   1.045   1_655  S
N856        H859   1.046       .  S
N856        H860   1.046       .  S
C865        C866   1.414       .  A
C865        C870   1.405       .  A
C866        C867   1.406       .  A
C866        N871   1.437       .  S
C867        C868   1.400       .  A
C867        H872   1.084       .  S
C868        C869   1.407       .  A
C868        C873   1.476       .  S
C869        C870   1.405       .  A
C869        N874   1.438       .  S
C870        H875   1.083       .  S
N871        H891   1.046       .  S
N871        H892   1.046       .  S
C873        C876   1.400       .  A
C873        C880   1.407       .  A
N874        H889   1.045       .  S
N874        H890   1.045       .  S
C876        C877   1.406       .  A
C876        H881   1.084       .  S
C877        C878   1.415       .  A
C877        N882   1.438       .  S
C878        C879   1.406       .  A
C879        C880   1.404       .  A
C879        H883   1.084       .  S
C880        N884   1.438       .  S
N882        H885   1.046       .  S
N882        H886   1.045       .  S
N884        H887   1.046       .  S
N884        H888   1.045       .  S
C893        C894   1.416       .  A
C893        C898   1.407       .  A
C894        C895   1.405       .  A
C894        N899   1.437       .  S
C895        C896   1.400       .  A
C895        H900   1.084   1_565  S
C896        C897   1.406       .  A
C896        C901   1.478   1_565  S
C897        C898   1.406       .  A
C897        N902   1.437       .  S
C898        H903   1.083       .  S
N899        H919   1.046       .  S
N899        H920   1.046       .  S
C901        C904   1.400       .  A
C901        C908   1.407       .  A
N902        H917   1.046       .  S
N902        H918   1.046       .  S
C904        C905   1.406       .  A
C904        H909   1.084   1_545  S
C905        C906   1.416       .  A
C905        N910   1.437       .  S
C906        C907   1.406       .  A
C907        C908   1.405       .  A
C907        H911   1.083       .  S
C908        N912   1.437       .  S
N910        H913   1.046       .  S
N910        H914   1.045       .  S
N912        H915   1.045       .  S
N912        H916   1.046       .  S
C921        C922   1.417       .  A
C921        C926   1.408       .  A
C922        C923   1.405       .  A
C922        N927   1.437       .  S
C923        C924   1.398       .  A
C923        H928   1.084       .  S
C924        C925   1.406       .  A
C924        C929   1.476       .  S
C925        C926   1.405       .  A
C925        N930   1.438       .  S
C926        H931   1.082       .  S
N927        H947   1.046       .  S
N927        H948   1.046       .  S
C929        C932   1.400       .  A
C929        C936   1.406       .  A
N930        H945   1.045       .  S
N930        H946   1.045       .  S
C932        C933   1.406       .  A
C932        H937   1.084       .  S
C933        C934   1.415       .  A
C933        N938   1.437       .  S
C934        C935   1.407       .  A
C935        C936   1.404       .  A
C935        H939   1.083       .  S
C936        N940   1.438       .  S
N938        H941   1.046       .  S
N938        H942   1.046       .  S
N940        H943   1.045       .  S
N940        H944   1.045       .  S
C949        C950   1.419       .  A
C949        C954   1.409       .  A
C950        C951   1.407       .  A
C950        N955   1.436       .  S
C951        C952   1.403       .  A
C951        H956   1.083       .  S
C952        C953   1.410       .  A
C952        C957   1.491       .  S
C953        C954   1.404       .  A
C953        N958   1.438       .  S
C954        H959   1.080       .  S
N955        H975   1.046       .  S
N955        H976   1.046       .  S
C957        C960   1.403       .  A
C957        C964   1.413       .  A
N958        H973   1.045       .  S
N958        H974   1.046       .  S
C960        C961   1.403       .  A
C960        H965   1.083       .  S
C961        C962   1.414       .  A
C961        N966   1.438       .  S
C962        C963   1.406       .  A
C963        C964   1.407       .  A
C963        H967   1.083       .  S
C964        N968   1.438       .  S
N966        H969   1.045       .  S
N966        H970   1.046       .  S
N968        H971   1.046       .  S
N968        H972   1.046       .  S
C977        C978   1.413       .  A
C977        C982   1.405       .  A
C978        C979   1.405       .  A
C978        N983   1.438       .  S
C979        C980   1.401       .  A
C979        H984   1.084       .  S
C980        C981   1.408       .  A
C980        C985   1.480       .  S
C981        C982   1.407       .  A
C981        N986   1.437       .  S
C982        H987   1.084       .  S
N983       H1003   1.046       .  S
N983       H1004   1.046       .  S
C985        C988   1.401       .  A
C985        C992   1.408       .  A
N986       H1001   1.045       .  S
N986       H1002   1.046       .  S
C988        C989   1.407       .  A
C988        H993   1.084       .  S
C989        C990   1.413       .  A
C989        N994   1.437   1_545  S
C990        C991   1.405       .  A
C991        C992   1.406       .  A
C991        H995   1.083       .  S
C992        N996   1.437       .  S
N994        H997   1.046       .  S
N994        H998   1.046       .  S
N996        H999   1.046       .  S
N996       H1000   1.045       .  S
C1005      C1006   1.416       .  A
C1005      C1010   1.406       .  A
C1006      C1007   1.405       .  A
C1006      N1011   1.437       .  S
C1007      C1008   1.403       .  A
C1007      H1012   1.084       .  S
C1008      C1009   1.410       .  A
C1008      C1013   1.487       .  S
C1009      C1010   1.405       .  A
C1009      N1014   1.438       .  S
C1010      H1015   1.083       .  S
N1011      H1031   1.045       .  S
N1011      H1032   1.046       .  S
C1013      C1016   1.404       .  A
C1013      C1020   1.412       .  A
N1014      H1029   1.045       .  S
N1014      H1030   1.046       .  S
C1016      C1017   1.406       .  A
C1016      H1021   1.084       .  S
C1017      C1018   1.413       .  A
C1017      N1022   1.437       .  S
C1018      C1019   1.403       .  A
C1019      C1020   1.404       .  A
C1019      H1023   1.084       .  S
C1020      N1024   1.438       .  S
N1022      H1025   1.046       .  S
N1022      H1026   1.046       .  S
N1024      H1027   1.046       .  S
N1024      H1028   1.045       .  S
C1033      C1034   1.415       .  A
C1033      C1038   1.405       .  A
C1034      C1035   1.408       .  A
C1034      N1039   1.438       .  S
C1035      C1036   1.401       .  A
C1035      H1040   1.084       .  S
C1036      C1037   1.408       .  A
C1036      C1041   1.477       .  S
C1037      C1038   1.403       .  A
C1037      N1042   1.438       .  S
C1038      H1043   1.084       .  S
N1039      H1059   1.046       .  S
N1039      H1060   1.046       .  S
C1041      C1044   1.399       .  A
C1041      C1048   1.408       .  A
N1042      H1057   1.046       .  S
N1042      H1058   1.044       .  S
C1044      C1045   1.403       .  A
C1044      H1049   1.084       .  S
C1045      C1046   1.415       .  A
C1045      N1050   1.438       .  S
C1046      C1047   1.407       .  A
C1047      C1048   1.407       .  A
C1047      H1051   1.083       .  S
C1048      N1052   1.438       .  S
N1050      H1053   1.046       .  S
N1050      H1054   1.045       .  S
N1052      H1055   1.045       .  S
N1052      H1056   1.044       .  S
C1061      C1062   1.415       .  A
C1061      C1066   1.405       .  A
C1062      C1063   1.406       .  A
C1062      N1067   1.437       .  S
C1063      C1064   1.399       .  A
C1063      H1068   1.084       .  S
C1064      C1065   1.408       .  A
C1064      C1069   1.478       .  S
C1065      C1066   1.407       .  A
C1065      N1070   1.438       .  S
C1066      H1071   1.083       .  S
N1067      H1087   1.046       .  S
N1067      H1088   1.046       .  S
C1069      C1072   1.400       .  A
C1069      C1076   1.408       .  A
N1070      H1085   1.046       .  S
N1070      H1086   1.045       .  S
C1072      C1073   1.405       .  A
C1072      H1077   1.084       .  S
C1073      C1074   1.413       .  A
C1073      N1078   1.438       .  S
C1074      C1075   1.405       .  A
C1075      C1076   1.406       .  A
C1075      H1079   1.084       .  S
C1076      N1080   1.438       .  S
N1078      H1081   1.045       .  S
N1078      H1082   1.046       .  S
N1080      H1083   1.046       .  S
N1080      H1084   1.045       .  S
C1089      C1090   1.415       .  A
C1089      C1094   1.405       .  A
C1090      C1091   1.406       .  A
C1090      N1095   1.438       .  S
C1091      C1092   1.401       .  A
C1091      H1096   1.084       .  S
C1092      C1093   1.408       .  A
C1092      C1097   1.479       .  S
C1093      C1094   1.402       .  A
C1093      N1098   1.438       .  S
C1094      H1099   1.083       .  S
N1095      H1115   1.045       .  S
N1095      H1116   1.046       .  S
C1097      C1100   1.402       .  A
C1097      C1104   1.408       .  A
N1098      H1113   1.046       .  S
N1098      H1114   1.046       .  S
C1100      C1101   1.405       .  A
C1100      H1105   1.084       .  S
C1101      C1102   1.413       .  A
C1101      N1106   1.438       .  S
C1102      C1103   1.404       .  A
C1103      C1104   1.404       .  A
C1103      H1107   1.084       .  S
C1104      N1108   1.438       .  S
N1106      H1109   1.046       .  S
N1106      H1110   1.046       .  S
N1108      H1111   1.046       .  S
N1108      H1112   1.046       .  S
C1117      C1118   1.413       .  A
C1117      C1122   1.404       .  A
C1118      C1119   1.404       .  A
C1118      N1123   1.438       .  S
C1119      C1120   1.403       .  A
C1119      H1124   1.084       .  S
C1120      C1121   1.411       .  A
C1120      C1125   1.484       .  S
C1121      C1122   1.404       .  A
C1121      N1126   1.438       .  S
C1122      H1127   1.084       .  S
N1123      H1143   1.046       .  S
N1123      H1144   1.045       .  S
C1125      C1128   1.401       .  A
C1125      C1132   1.408       .  A
N1126      H1141   1.045       .  S
N1126      H1142   1.046       .  S
C1128      C1129   1.405       .  A
C1128      H1133   1.084       .  S
C1129      C1130   1.417       .  A
C1129      N1134   1.436       .  S
C1130      C1131   1.409       .  A
C1131      C1132   1.404       .  A
C1131      H1135   1.081       .  S
C1132      N1136   1.438       .  S
N1134      H1137   1.046       .  S
N1134      H1138   1.046       .  S
N1136      H1139   1.046       .  S
N1136      H1140   1.046       .  S
C1145      C1146   1.409       .  A
C1145      C1150   1.404       .  A
C1146      C1147   1.401       .  A
C1146      N1151   1.432       .  S
C1147      C1148   1.401       .  A
C1147      H1152   1.084       .  S
C1148      C1149   1.409       .  A
C1148      C1153   1.477       .  S
C1149      C1150   1.405       .  A
C1149      N1154   1.437       .  S
C1150      H1155   1.084       .  S
N1151      H1171   1.045       .  S
N1151      H1172   1.046       .  S
C1153      C1156   1.401       .  A
C1153      C1160   1.408       .  A
N1154      H1169   1.046       .  S
N1154      H1170   1.045       .  S
C1156      C1157   1.404       .  A
C1156      H1161   1.084       .  S
C1157      C1158   1.412       .  A
C1157      N1162   1.438       .  S
C1158      C1159   1.404       .  A
C1159      C1160   1.405       .  A
C1159      H1163   1.084       .  S
C1160      N1164   1.437       .  S
N1162      H1165   1.045       .  S
N1162      H1166   1.046       .  S
N1164      H1167   1.045       .  S
N1164      H1168   1.046       .  S
C1173      C1174   1.410       .  A
C1173      C1178   1.403       .  A
C1174      C1175   1.405       .  A
C1174      N1179   1.432       .  S
C1175      C1176   1.403       .  A
C1175      H1180   1.084       .  S
C1176      C1177   1.411       .  A
C1176      C1181   1.480       .  S
C1177      C1178   1.402       .  A
C1177      N1182   1.438       .  S
C1178      H1183   1.084       .  S
N1179      H1199   1.046       .  S
N1179      H1200   1.045       .  S
C1181      C1184   1.402       .  A
C1181      C1188   1.409       .  A
N1182      H1197   1.046       .  S
N1182      H1198   1.045       .  S
C1184      C1185   1.404       .  A
C1184      H1189   1.084       .  S
C1185      C1186   1.412       .  A
C1185      N1190   1.438       .  S
C1186      C1187   1.405       .  A
C1187      C1188   1.405       .  A
C1187      H1191   1.084       .  S
C1188      N1192   1.438       .  S
N1190      H1193   1.046       .  S
N1190      H1194   1.045       .  S
N1192      H1195   1.045       .  S
N1192      H1196   1.046       .  S
C1201      C1202   1.415       .  A
C1201      C1206   1.405       .  A
C1202      C1203   1.405       .  A
C1202      N1207   1.437       .  S
C1203      C1204   1.399       .  A
C1203      H1208   1.084       .  S
C1204      C1205   1.407       .  A
C1204      C1209   1.476       .  S
C1205      C1206   1.404       .  A
C1205      N1210   1.438       .  S
C1206      H1211   1.083       .  S
N1207      H1227   1.046       .  S
N1207      H1228   1.046       .  S
C1209      C1212   1.401       .  A
C1209      C1216   1.408       .  A
N1210      H1225   1.046       .  S
N1210      H1226   1.046       .  S
C1212      C1213   1.405       .  A
C1212      H1217   1.084       .  S
C1213      C1214   1.413       .  A
C1213      N1218   1.438       .  S
C1214      C1215   1.404       .  A
C1215      C1216   1.403       .  A
C1215      H1219   1.084       .  S
C1216      N1220   1.438       .  S
N1218      H1221   1.046       .  S
N1218      H1222   1.046       .  S
N1220      H1223   1.046       .  S
N1220      H1224   1.046       .  S
C1229      C1230   1.412       .  A
C1229      C1234   1.402   1_554  A
C1230      C1231   1.404       .  A
C1230      N1235   1.438       .  S
C1231      C1232   1.403   1_554  A
C1231      H1236   1.084       .  S
C1232      C1233   1.412       .  A
C1232      C1237   1.485       .  S
C1233      C1234   1.405       .  A
C1233      N1238   1.438       .  S
C1234      H1239   1.084       .  S
N1235      H1255   1.046       .  S
N1235      H1256   1.046       .  S
C1237      C1240   1.403       .  A
C1237      C1244   1.411       .  A
N1238      H1253   1.046       .  S
N1238      H1254   1.046       .  S
C1240      C1241   1.404       .  A
C1240      H1245   1.084       .  S
C1241      C1242   1.412       .  A
C1241      N1246   1.437       .  S
C1242      C1243   1.404       .  A
C1243      C1244   1.406       .  A
C1243      H1247   1.083       .  S
C1244      N1248   1.438   1_556  S
N1246      H1249   1.046       .  S
N1246      H1250   1.046       .  S
N1248      H1251   1.046       .  S
N1248      H1252   1.046       .  S
C1257      C1258   1.410       .  A
C1257      C1262   1.404       .  A
C1258      C1259   1.405       .  A
C1258      N1263   1.438       .  S
C1259      C1260   1.403       .  A
C1259      H1264   1.084       .  S
C1260      C1261   1.409       .  A
C1260      C1265   1.480       .  S
C1261      C1262   1.405       .  A
C1261      N1266   1.437       .  S
C1262      H1267   1.084       .  S
N1263      H1283   1.046       .  S
N1263      H1284   1.046       .  S
C1265      C1268   1.402       .  A
C1265      C1272   1.408       .  A
N1266      H1281   1.046       .  S
N1266      H1282   1.046       .  S
C1268      C1269   1.406       .  A
C1268      H1273   1.084       .  S
C1269      C1270   1.413       .  A
C1269      N1274   1.438       .  S
C1270      C1271   1.405       .  A
C1271      C1272   1.404       .  A
C1271      H1275   1.084       .  S
C1272      N1276   1.438       .  S
N1274      H1277   1.046       .  S
N1274      H1278   1.046       .  S
N1276      H1279   1.046       .  S
N1276      H1280   1.046       .  S
C1285      C1286   1.414       .  A
C1285      C1290   1.406       .  A
C1286      C1287   1.407       .  A
C1286      N1291   1.437       .  S
C1287      C1288   1.401       .  A
C1287      H1292   1.084       .  S
C1288      C1289   1.409       .  A
C1288      C1293   1.481       .  S
C1289      C1290   1.407       .  A
C1289      N1294   1.438       .  S
C1290      H1295   1.083       .  S
N1291      H1311   1.046       .  S
N1291      H1312   1.046       .  S
C1293      C1296   1.401       .  A
C1293      C1300   1.409       .  A
N1294      H1309   1.045       .  S
N1294      H1310   1.044       .  S
C1296      C1297   1.407       .  A
C1296      H1301   1.084       .  S
C1297      C1298   1.414       .  A
C1297      N1302   1.438       .  S
C1298      C1299   1.407       .  A
C1299      C1300   1.407       .  A
C1299      H1303   1.084       .  S
C1300      N1304   1.438       .  S
N1302      H1305   1.046       .  S
N1302      H1306   1.046       .  S
N1304      H1307   1.046       .  S
N1304      H1308   1.044       .  S
C1313      C1314   1.414       .  A
C1313      C1318   1.406       .  A
C1314      C1315   1.408       .  A
C1314      N1319   1.437       .  S
C1315      C1316   1.402       .  A
C1315      H1320   1.084   1_554  S
C1316      C1317   1.408       .  A
C1316      C1321   1.483   1_554  S
C1317      C1318   1.405       .  A
C1317      N1322   1.438       .  S
C1318      H1323   1.083       .  S
N1319      H1339   1.046       .  S
N1319      H1340   1.046       .  S
C1321      C1324   1.401       .  A
C1321      C1328   1.408   1_556  A
N1322      H1337   1.046       .  S
N1322      H1338   1.046       .  S
C1324      C1325   1.407       .  A
C1324      H1329   1.084       .  S
C1325      C1326   1.414       .  A
C1325      N1330   1.437       .  S
C1326      C1327   1.406       .  A
C1327      C1328   1.407   1_556  A
C1327      H1331   1.083       .  S
C1328      N1332   1.438       .  S
N1330      H1333   1.046       .  S
N1330      H1334   1.046       .  S
N1332      H1335   1.046       .  S
N1332      H1336   1.046       .  S
C1341      C1342   1.414       .  A
C1341      C1346   1.405       .  A
C1342      C1343   1.405       .  A
C1342      N1347   1.438       .  S
C1343      C1344   1.400       .  A
C1343      H1348   1.084       .  S
C1344      C1345   1.407       .  A
C1344      C1349   1.475       .  S
C1345      C1346   1.404       .  A
C1345      N1350   1.438       .  S
C1346      H1351   1.084       .  S
N1347      H1367   1.046       .  S
N1347      H1368   1.046       .  S
C1349      C1352   1.399       .  A
C1349      C1356   1.406       .  A
N1350      H1365   1.046       .  S
N1350      H1366   1.045       .  S
C1352      C1353   1.404       .  A
C1352      H1357   1.084       .  S
C1353      C1354   1.417       .  A
C1353      N1358   1.438       .  S
C1354      C1355   1.407       .  A
C1355      C1356   1.405       .  A
C1355      H1359   1.083       .  S
C1356      N1360   1.438       .  S
N1358      H1361   1.046       .  S
N1358      H1362   1.045       .  S
N1360      H1363   1.045       .  S
N1360      H1364   1.045       .  S
C1369      C1370   1.410       .  A
C1369      C1374   1.405       .  A
C1370      C1371   1.405       .  A
C1370      N1375   1.437       .  S
C1371      C1372   1.403       .  A
C1371      H1376   1.084       .  S
C1372      C1373   1.409       .  A
C1372      C1377   1.481       .  S
C1373      C1374   1.405       .  A
C1373      N1378   1.437       .  S
C1374      H1379   1.084       .  S
N1375      H1395   1.045       .  S
N1375      H1396   1.046       .  S
C1377      C1380   1.402       .  A
C1377      C1384   1.409       .  A
N1378      H1393   1.046       .  S
N1378      H1394   1.046       .  S
C1380      C1381   1.404       .  A
C1380      H1385   1.084       .  S
C1381      C1382   1.411       .  A
C1381      N1386   1.438       .  S
C1382      C1383   1.405       .  A
C1383      C1384   1.406       .  A
C1383      H1387   1.084       .  S
C1384      N1388   1.437       .  S
N1386      H1389   1.046       .  S
N1386      H1390   1.046       .  S
N1388      H1391   1.046       .  S
N1388      H1392   1.046       .  S
C1397      C1398   1.413       .  A
C1397      C1402   1.404       .  A
C1398      C1399   1.407       .  A
C1398      N1403   1.438       .  S
C1399      C1400   1.402       .  A
C1399      H1404   1.084       .  S
C1400      C1401   1.408       .  A
C1400      C1405   1.480       .  S
C1401      C1402   1.405       .  A
C1401      N1406   1.438       .  S
C1402      H1407   1.084       .  S
N1403      H1423   1.046       .  S
N1403      H1424   1.046       .  S
C1405      C1408   1.401       .  A
C1405      C1412   1.407       .  A
N1406      H1421   1.046       .  S
N1406      H1422   1.046       .  S
C1408      C1409   1.409       .  A
C1408      H1413   1.084       .  S
C1409      C1410   1.416       .  A
C1409      N1414   1.437       .  S
C1410      C1411   1.406       .  A
C1411      C1412   1.404       .  A
C1411      H1415   1.083       .  S
C1412      N1416   1.438       .  S
N1414      H1417   1.046       .  S
N1414      H1418   1.046       .  S
N1416      H1419   1.046       .  S
N1416      H1420   1.046       .  S
C1425      C1426   1.413       .  A
C1425      C1430   1.404       .  A
C1426      C1427   1.405       .  A
C1426      N1431   1.437       .  S
C1427      C1428   1.401       .  A
C1427      H1432   1.084       .  S
C1428      C1429   1.408       .  A
C1428      C1433   1.479       .  S
C1429      C1430   1.405       .  A
C1429      N1434   1.438       .  S
C1430      H1435   1.084       .  S
N1431      H1451   1.046       .  S
N1431      H1452   1.046       .  S
C1433      C1436   1.402   1_566  A
C1433      C1440   1.409   1_565  A
N1434      H1449   1.046       .  S
N1434      H1450   1.045   1_565  S
C1436      C1437   1.406       .  A
C1436      H1441   1.084   1_545  S
C1437      C1438   1.412       .  A
C1437      N1442   1.438       .  S
C1438      C1439   1.403   1_554  A
C1439      C1440   1.404       .  A
C1439      H1443   1.084       .  S
C1440      N1444   1.438       .  S
N1442      H1445   1.046       .  S
N1442      H1446   1.046       .  S
N1444      H1447   1.045       .  S
N1444      H1448   1.046       .  S
C1453      C1454   1.415       .  A
C1453      C1458   1.406       .  A
C1454      C1455   1.403       .  A
C1454      N1459   1.438       .  S
C1455      C1456   1.399       .  A
C1455      H1460   1.084       .  S
C1456      C1457   1.408       .  A
C1456      C1461   1.475       .  S
C1457      C1458   1.406       .  A
C1457      N1462   1.438       .  S
C1458      H1463   1.084       .  S
N1459      H1479   1.045       .  S
N1459      H1480   1.046       .  S
C1461      C1464   1.400       .  A
C1461      C1468   1.407       .  A
N1462      H1477   1.046       .  S
N1462      H1478   1.045       .  S
C1464      C1465   1.405       .  A
C1464      H1469   1.084       .  S
C1465      C1466   1.414       .  A
C1465      N1470   1.438       .  S
C1466      C1467   1.406       .  A
C1467      C1468   1.404       .  A
C1467      H1471   1.084       .  S
C1468      N1472   1.438       .  S
N1470      H1473   1.046       .  S
N1470      H1474   1.045       .  S
N1472      H1475   1.046       .  S
N1472      H1476   1.045       .  S
C1481      C1482   1.414       .  A
C1481      C1486   1.404       .  A
C1482      C1483   1.406       .  A
C1482      N1487   1.438       .  S
C1483      C1484   1.400       .  A
C1483      H1488   1.084       .  S
C1484      C1485   1.408       .  A
C1484      C1489   1.474       .  S
C1485      C1486   1.402       .  A
C1485      N1490   1.438       .  S
C1486      H1491   1.084       .  S
N1487      H1507   1.046       .  S
N1487      H1508   1.046       .  S
C1489      C1492   1.399       .  A
C1489      C1496   1.407       .  A
N1490      H1505   1.045       .  S
N1490      H1506   1.045       .  S
C1492      C1493   1.405       .  A
C1492      H1497   1.084       .  S
C1493      C1494   1.414       .  A
C1493      N1498   1.437       .  S
C1494      C1495   1.406       .  A
C1495      C1496   1.405       .  A
C1495      H1499   1.083       .  S
C1496      N1500   1.438       .  S
N1498      H1501   1.046       .  S
N1498      H1502   1.046       .  S
N1500      H1503   1.045       .  S
N1500      H1504   1.045       .  S
C1509      C1510   1.412       .  A
C1509      C1514   1.402       .  A
C1510      C1511   1.407   1_565  A
C1510      N1515   1.438       .  S
C1511      C1512   1.404       .  A
C1511      H1516   1.084       .  S
C1512      C1513   1.412   1_546  A
C1512      C1517   1.487   1_556  S
C1513      C1514   1.404   1_554  A
C1513      N1518   1.438   1_565  S
C1514      H1519   1.084       .  S
N1515      H1535   1.046       .  S
N1515      H1536   1.046       .  S
C1517      C1520   1.401       .  A
C1517      C1524   1.410   1_554  A
N1518      H1533   1.046   1_545  S
N1518      H1534   1.045       .  S
C1520      C1521   1.404       .  A
C1520      H1525   1.084       .  S
C1521      C1522   1.417       .  A
C1521      N1526   1.437       .  S
C1522      C1523   1.407       .  A
C1523      C1524   1.406   1_554  A
C1523      H1527   1.082   1_554  S
C1524      N1528   1.438       .  S
N1526      H1529   1.046       .  S
N1526      H1530   1.046       .  S
N1528      H1531   1.046       .  S
N1528      H1532   1.046       .  S
C1537      C1538   1.407       .  A
C1537      C1542   1.402       .  A
C1538      C1539   1.401       .  A
C1538      N1543   1.432       .  S
C1539      C1540   1.401       .  A
C1539      H1544   1.084       .  S
C1540      C1541   1.409       .  A
C1540      C1545   1.474       .  S
C1541      C1542   1.404       .  A
C1541      N1546   1.438       .  S
C1542      H1547   1.084       .  S
N1543      H1563   1.046       .  S
N1543      H1564   1.046       .  S
C1545      C1548   1.402       .  A
C1545      C1552   1.409       .  A
N1546      H1561   1.046       .  S
N1546      H1562   1.046       .  S
C1548      C1549   1.401       .  A
C1548      H1553   1.084       .  S
C1549      C1550   1.406       .  A
C1549      N1554   1.432       .  S
C1550      C1551   1.402       .  A
C1551      C1552   1.403       .  A
C1551      H1555   1.084       .  S
C1552      N1556   1.438       .  S
N1554      H1557   1.046       .  S
N1554      H1558   1.045       .  S
N1556      H1559   1.046       .  S
N1556      H1560   1.046       .  S
C1565      C1566   1.411       .  A
C1565      C1570   1.401       .  A
C1566      C1567   1.406       .  A
C1566      N1571   1.438       .  S
C1567      C1568   1.403       .  A
C1567      H1572   1.084       .  S
C1568      C1569   1.411       .  A
C1568      C1573   1.481       .  S
C1569      C1570   1.402       .  A
C1569      N1574   1.438       .  S
C1570      H1575   1.084       .  S
N1571      H1591   1.046       .  S
N1571      H1592   1.046       .  S
C1573      C1576   1.403       .  A
C1573      C1580   1.410       .  A
N1574      H1589   1.046       .  S
N1574      H1590   1.046       .  S
C1576      C1577   1.404       .  A
C1576      H1581   1.084       .  S
C1577      C1578   1.409       .  A
C1577      N1582   1.438       .  S
C1578      C1579   1.403       .  A
C1579      C1580   1.405       .  A
C1579      H1583   1.084       .  S
C1580      N1584   1.438       .  S
N1582      H1585   1.046       .  S
N1582      H1586   1.046       .  S
N1584      H1587   1.046       .  S
N1584      H1588   1.046       .  S
C1593      C1594   1.413       .  A
C1593      C1598   1.405       .  A
C1594      C1595   1.404       .  A
C1594      N1599   1.438       .  S
C1595      C1596   1.400       .  A
C1595      H1600   1.084       .  S
C1596      C1597   1.408       .  A
C1596      C1601   1.475       .  S
C1597      C1598   1.404       .  A
C1597      N1602   1.438       .  S
C1598      H1603   1.084       .  S
N1599      H1619   1.045       .  S
N1599      H1620   1.046       .  S
C1601      C1604   1.400       .  A
C1601      C1608   1.406       .  A
N1602      H1617   1.045       .  S
N1602      H1618   1.045       .  S
C1604      C1605   1.408       .  A
C1604      H1609   1.084       .  S
C1605      C1606   1.414       .  A
C1605      N1610   1.437       .  S
C1606      C1607   1.405       .  A
C1607      C1608   1.401       .  A
C1607      H1611   1.083       .  S
C1608      N1612   1.438       .  S
N1610      H1613   1.046       .  S
N1610      H1614   1.045       .  S
N1612      H1615   1.045       .  S
N1612      H1616   1.046       .  S
C1621      C1622   1.412       .  A
C1621      C1626   1.405   1_554  A
C1622      C1623   1.408       .  A
C1622      N1627   1.437       .  S
C1623      C1624   1.406   1_554  A
C1623      H1628   1.083       .  S
C1624      C1625   1.414       .  A
C1624      C1629   1.497       .  S
C1625      C1626   1.408       .  A
C1625      N1630   1.438       .  S
C1626      H1631   1.083       .  S
N1627      H1647   1.046       .  S
N1627      H1648   1.046       .  S
C1629      C1632   1.405       .  A
C1629      C1636   1.411       .  A
N1630      H1645   1.046       .  S
N1630      H1646   1.045       .  S
C1632      C1633   1.410       .  A
C1632      H1637   1.083       .  S
C1633      C1634   1.418       .  A
C1633      N1638   1.437       .  S
C1634      C1635   1.408       .  A
C1635      C1636   1.406       .  A
C1635      H1639   1.081       .  S
C1636      N1640   1.438   1_556  S
N1638      H1641   1.046       .  S
N1638      H1642   1.046       .  S
N1640      H1643   1.046       .  S
N1640      H1644   1.046       .  S
C1649      C1650   1.415       .  A
C1649      C1654   1.406       .  A
C1650      C1651   1.406       .  A
C1650      N1655   1.437       .  S
C1651      C1652   1.400       .  A
C1651      H1656   1.084       .  S
C1652      C1653   1.407       .  A
C1652      C1657   1.476       .  S
C1653      C1654   1.404       .  A
C1653      N1658   1.438       .  S
C1654      H1659   1.083       .  S
N1655      H1675   1.046       .  S
N1655      H1676   1.046       .  S
C1657      C1660   1.398   1_556  A
C1657      C1664   1.407       .  A
N1658      H1673   1.046   1_556  S
N1658      H1674   1.045       .  S
C1660      C1661   1.405       .  A
C1660      H1665   1.084       .  S
C1661      C1662   1.417       .  A
C1661      N1666   1.437       .  S
C1662      C1663   1.406   1_554  A
C1663      C1664   1.406       .  A
C1663      H1667   1.083       .  S
C1664      N1668   1.438       .  S
N1666      H1669   1.046       .  S
N1666      H1670   1.046       .  S
N1668      H1671   1.046       .  S
N1668      H1672   1.045       .  S
C1677      C1678   1.407       .  A
C1677      C1682   1.404       .  A
C1678      C1679   1.402       .  A
C1678      N1683   1.432       .  S
C1679      C1680   1.402       .  A
C1679      H1684   1.084       .  S
C1680      C1681   1.409       .  A
C1680      C1685   1.476       .  S
C1681      C1682   1.405       .  A
C1681      N1686   1.437       .  S
C1682      H1687   1.084       .  S
N1683      H1703   1.045       .  S
N1683      H1704   1.046       .  S
C1685      C1688   1.401       .  A
C1685      C1692   1.408       .  A
N1686      H1701   1.046       .  S
N1686      H1702   1.046       .  S
C1688      C1689   1.403       .  A
C1688      H1693   1.084       .  S
C1689      C1690   1.409       .  A
C1689      N1694   1.432       .  S
C1690      C1691   1.405       .  A
C1691      C1692   1.404       .  A
C1691      H1695   1.084       .  S
C1692      N1696   1.438       .  S
N1694      H1697   1.045       .  S
N1694      H1698   1.046       .  S
N1696      H1699   1.045       .  S
N1696      H1700   1.046       .  S
C1705      C1706   1.412       .  A
C1705      C1710   1.405       .  A
C1706      C1707   1.408       .  A
C1706      N1711   1.437       .  S
C1707      C1708   1.404       .  A
C1707      H1712   1.084       .  S
C1708      C1709   1.410       .  A
C1708      C1713   1.486       .  S
C1709      C1710   1.405       .  A
C1709      N1714   1.438       .  S
C1710      H1715   1.083       .  S
N1711      H1731   1.046       .  S
N1711      H1732   1.046       .  S
C1713      C1716   1.404       .  A
C1713      C1720   1.411       .  A
N1714      H1729   1.046       .  S
N1714      H1730   1.046       .  S
C1716      C1717   1.408       .  A
C1716      H1721   1.084       .  S
C1717      C1718   1.412       .  A
C1717      N1722   1.438       .  S
C1718      C1719   1.404       .  A
C1719      C1720   1.405       .  A
C1719      H1723   1.084       .  S
C1720      N1724   1.438       .  S
N1722      H1725   1.046       .  S
N1722      H1726   1.046       .  S
N1724      H1727   1.046       .  S
N1724      H1728   1.046       .  S
C1733      C1734   1.412       .  A
C1733      C1738   1.404       .  A
C1734      C1735   1.405       .  A
C1734      N1739   1.437       .  S
C1735      C1736   1.403       .  A
C1735      H1740   1.084       .  S
C1736      C1737   1.410   1_554  A
C1736      C1741   1.483   1_554  S
C1737      C1738   1.404   1_556  A
C1737      N1742   1.438       .  S
C1738      H1743   1.083       .  S
N1739      H1759   1.046       .  S
N1739      H1760   1.046       .  S
C1741      C1744   1.403       .  A
C1741      C1748   1.409   1_556  A
N1742      H1757   1.046       .  S
N1742      H1758   1.046       .  S
C1744      C1745   1.406       .  A
C1744      H1749   1.084       .  S
C1745      C1746   1.414       .  A
C1745      N1750   1.437       .  S
C1746      C1747   1.404       .  A
C1747      C1748   1.403   1_556  A
C1747      H1751   1.083       .  S
C1748      N1752   1.438       .  S
N1750      H1753   1.046       .  S
N1750      H1754   1.046       .  S
N1752      H1755   1.046       .  S
N1752      H1756   1.046       .  S
C1761      C1762   1.417   1_556  A
C1761      C1766   1.408       .  A
C1762      C1763   1.404       .  A
C1762      N1767   1.437       .  S
C1763      C1764   1.398       .  A
C1763      H1768   1.084       .  S
C1764      C1765   1.405   1_554  A
C1764      C1769   1.474       .  S
C1765      C1766   1.404       .  A
C1765      N1770   1.438       .  S
C1766      H1771   1.083       .  S
N1767      H1787   1.045       .  S
N1767      H1788   1.046       .  S
C1769      C1772   1.400       .  A
C1769      C1776   1.406       .  A
N1770      H1785   1.045       .  S
N1770      H1786   1.045       .  S
C1772      C1773   1.404       .  A
C1772      H1777   1.084   1_554  S
C1773      C1774   1.414       .  A
C1773      N1778   1.438       .  S
C1774      C1775   1.405       .  A
C1775      C1776   1.404       .  A
C1775      H1779   1.083       .  S
C1776      N1780   1.438       .  S
N1778      H1781   1.046       .  S
N1778      H1782   1.046       .  S
N1780      H1783   1.045       .  S
N1780      H1784   1.045       .  S
C1789      C1790   1.411       .  A
C1789      C1794   1.403       .  A
C1790      C1791   1.407       .  A
C1790      N1795   1.438       .  S
C1791      C1792   1.403       .  A
C1791      H1796   1.084       .  S
C1792      C1793   1.409       .  A
C1792      C1797   1.479       .  S
C1793      C1794   1.403       .  A
C1793      N1798   1.438       .  S
C1794      H1799   1.084       .  S
N1795      H1815   1.046       .  S
N1795      H1816   1.046       .  S
C1797      C1800   1.402       .  A
C1797      C1804   1.408       .  A
N1798      H1813   1.045       .  S
N1798      H1814   1.046       .  S
C1800      C1801   1.406       .  A
C1800      H1805   1.084       .  S
C1801      C1802   1.413       .  A
C1801      N1806   1.438       .  S
C1802      C1803   1.404       .  A
C1803      C1804   1.404       .  A
C1803      H1807   1.084       .  S
C1804      N1808   1.438       .  S
N1806      H1809   1.046       .  S
N1806      H1810   1.045       .  S
N1808      H1811   1.045       .  S
N1808      H1812   1.046       .  S
C1817      C1818   1.415       .  A
C1817      C1822   1.407       .  A
C1818      C1819   1.403       .  A
C1818      N1823   1.438       .  S
C1819      C1820   1.399       .  A
C1819      H1824   1.084       .  S
C1820      C1821   1.408       .  A
C1820      C1825   1.477       .  S
C1821      C1822   1.408       .  A
C1821      N1826   1.438       .  S
C1822      H1827   1.083       .  S
N1823      H1843   1.045       .  S
N1823      H1844   1.046       .  S
C1825      C1828   1.400       .  A
C1825      C1832   1.407       .  A
N1826      H1841   1.046       .  S
N1826      H1842   1.044       .  S
C1828      C1829   1.407       .  A
C1828      H1833   1.084       .  S
C1829      C1830   1.418       .  A
C1829      N1834   1.438       .  S
C1830      C1831   1.407       .  A
C1831      C1832   1.403       .  A
C1831      H1835   1.083       .  S
C1832      N1836   1.438       .  S
N1834      H1837   1.045       .  S
N1834      H1838   1.046       .  S
N1836      H1839   1.046       .  S
N1836      H1840   1.044       .  S
C1845      C1846   1.410       .  A
C1845      C1850   1.404       .  A
C1846      C1847   1.401       .  A
C1846      N1851   1.433       .  S
C1847      C1848   1.401       .  A
C1847      H1852   1.084       .  S
C1848      C1849   1.410       .  A
C1848      C1853   1.480       .  S
C1849      C1850   1.406       .  A
C1849      N1854   1.437       .  S
C1850      H1855   1.084       .  S
N1851      H1871   1.046       .  S
N1851      H1872   1.046       .  S
C1853      C1856   1.401       .  A
C1853      C1860   1.408       .  A
N1854      H1869   1.046       .  S
N1854      H1870   1.046       .  S
C1856      C1857   1.405       .  A
C1856      H1861   1.084       .  S
C1857      C1858   1.414       .  A
C1857      N1862   1.437       .  S
C1858      C1859   1.405       .  A
C1859      C1860   1.405       .  A
C1859      H1863   1.083       .  S
C1860      N1864   1.438       .  S
N1862      H1865   1.046       .  S
N1862      H1866   1.046       .  S
N1864      H1867   1.046       .  S
N1864      H1868   1.046       .  S
