geometry optimzed in LAMMPS
_audit_creation_date              2020-11-30 
_audit_creation_method            'lammps2cif' 
_symmetry_space_group_name_H-M    'P1' 
_symmetry_Int_Tables_number       1 
_symmetry_cell_setting            triclinic 
loop_ 
_symmetry_equiv_pos_as_xyz 
  x,y,z 
_cell_length_a                    38.39616396 
_cell_length_b                    38.36393667254386 
_cell_length_c                    38.38105177660297 
_cell_angle_alpha                 90.09552808144278 
_cell_angle_beta                  89.86530021927656 
_cell_angle_gamma                 90.05929296638743 
loop_ 
_atom_site_label 
_atom_site_type_symbol 
_atom_site_fract_x 
_atom_site_fract_y 
_atom_site_fract_z 
_atom_site_charge 
O1          O  0.82434493  0.24423707  0.86595871    -0.83100
O2          O  0.79807280  0.31061301  0.86853220    -0.80100
C3          C  0.79630663  0.34322874  0.87122286     1.00400
O4          O  0.82359400  0.36187395  0.86964705    -0.80200
O5          O  0.86203032  0.34470032  0.92835091    -0.82800
C6          C  0.87848388  0.32512483  0.94895306     1.04900
O7          O  0.89716000  0.30039027  0.93771442    -0.75600
O8          O  0.85076063  0.25004429  0.91617801    -0.75700
C9          C  0.82781845  0.23587514  0.89754464     1.04900
O10         O  0.87120126  0.26612411  0.81218510    -0.83100
O11         O  0.83962098  0.32972478  0.80967061    -0.80100
C12         C  0.86623459  0.34807788  0.80380608     1.00400
O13         O  0.88705271  0.35534017  0.82811455    -0.80200
O14         O  0.92539985  0.34472101  0.88786008    -0.82800
C15         C  0.94644438  0.32072322  0.87952442     1.04900
O16         O  0.93607819  0.29004741  0.87451695    -0.75600
O17         O  0.89335824  0.23624329  0.85550951    -0.75700
C18         C  0.88850729  0.24067770  0.82321897     1.04800
Cr19       Cr  0.83569696  0.28876670  0.84146373     1.93700
Cr20       Cr  0.87397571  0.34836113  0.87806216     1.93200
Cr21       Cr  0.89245824  0.27169776  0.89431056     1.39100
O22         O  0.86733006  0.30297674  0.87155560    -1.20800
O23         O  0.73196785  0.11282681  0.81371350    -0.83100
O24         O  0.66938718  0.14653276  0.80789329    -0.80100
C25         C  0.64844941  0.12167625  0.80326224     1.00400
O26         O  0.64078390  0.10136350  0.82788288    -0.80200
O27         O  0.65026540  0.06417839  0.88846448    -0.82800
C28         C  0.67405136  0.04253601  0.88120246     1.04900
O29         O  0.70525677  0.05196815  0.87772339    -0.75600
O30         O  0.76050385  0.09302948  0.85899093    -0.75700
C31         C  0.75700558  0.09601130  0.82636847     1.04900
O32         O  0.75341045  0.16179372  0.86570131    -0.83100
O33         O  0.68790776  0.18985027  0.86513534    -0.80100
C34         C  0.65533158  0.19232885  0.86745856     1.00400
O35         O  0.63606821  0.16550097  0.86729428    -0.80200
O36         O  0.65072531  0.12872740  0.92736013    -0.82800
C37         C  0.66924708  0.11250283  0.94899191     1.04900
O38         O  0.69384299  0.09301870  0.93906028    -0.75600
O39         O  0.74504568  0.13864998  0.91717699    -0.75700
C40         C  0.75979169  0.16075956  0.89788373     1.04800
Cr41       Cr  0.70945851  0.15041001  0.84053692     1.93700
Cr42       Cr  0.64793779  0.11531994  0.87745495     1.93200
Cr43       Cr  0.72377299  0.09600579  0.89644725     1.39100
O44         O  0.69359458  0.12057534  0.87164559    -1.20800
O45         O  0.87456435  0.18022234  0.72309762    -0.83100
O46         O  0.84102060  0.18265114  0.66009672    -0.80100
C47         C  0.86744542  0.18816726  0.64141505     1.00400
O48         O  0.88776824  0.16344119  0.63396304    -0.80200
O49         O  0.92591767  0.10359020  0.64490344    -0.82800
C50         C  0.94717025  0.11118430  0.66892947     1.04900
O51         O  0.93715391  0.11611605  0.69972015    -0.75600
O52         O  0.89511920  0.13647901  0.75356125    -0.75700
C53         C  0.89085168  0.16888235  0.74909182     1.04900
O54         O  0.82713870  0.12802917  0.74660431    -0.83100
O55         O  0.79950185  0.12464273  0.68128436    -0.80100
C56         C  0.79700582  0.12013937  0.64894798     1.00400
O57         O  0.82372178  0.12157426  0.62938722    -0.80200
O58         O  0.86256034  0.06312576  0.64581252    -0.82800
C59         C  0.87888471  0.04239728  0.66536868     1.04900
O60         O  0.89743766  0.05356278  0.69017092    -0.75600
O61         O  0.85124691  0.07669119  0.74022789    -0.75700
C62         C  0.82912751  0.09624181  0.75454237     1.04800
Cr63       Cr  0.83792386  0.15150436  0.70159048     1.93700
Cr64       Cr  0.87450563  0.11348243  0.64176700     1.93200
Cr65       Cr  0.89341084  0.09738316  0.71841402     1.39100
O66         O  0.86861439  0.12048831  0.68715166    -1.20800
O67         O  0.68845247  0.36900855  0.76637673    -0.83100
O68         O  0.69340843  0.33561571  0.82913151    -0.80100
C69         C  0.69797228  0.36056179  0.85004771     1.00400
O70         O  0.67330532  0.38086654  0.85768160    -0.80200
O71         O  0.61233678  0.41763030  0.84820698    -0.82800
C72         C  0.61993769  0.43961758  0.82493558     1.04900
O73         O  0.62474799  0.43062068  0.79376049    -0.75600
O74         O  0.64369927  0.39000026  0.73787714    -0.75700
C75         C  0.67624811  0.38613931  0.74132419     1.04900
O76         O  0.63593044  0.32077857  0.74469322    -0.83100
O77         O  0.63588696  0.29246784  0.81012682    -0.80100
C78         C  0.63323960  0.28996012  0.84269589     1.00400
O79         O  0.63409604  0.31671614  0.86198462    -0.80200
O80         O  0.57424084  0.35313027  0.84652772    -0.82800
C81         C  0.55286518  0.36986471  0.82818244     1.04900
O82         O  0.56306431  0.38989820  0.80412516    -0.75600
O83         O  0.58484482  0.34497527  0.75255613    -0.75700
C84         C  0.60382086  0.32242367  0.73811745     1.04800
Cr85       Cr  0.66103606  0.33178345  0.78877321     1.93700
Cr86       Cr  0.62388717  0.36675674  0.85013951     1.93200
Cr87       Cr  0.60588347  0.38704593  0.77440392     1.39100
O88         O  0.63015519  0.36189059  0.80450698    -1.20800
O89         O  0.78003786  0.29942411  0.62609894    -0.83100
O90         O  0.84301785  0.29700137  0.65974284    -0.80100
C91         C  0.86153861  0.29067398  0.63338747     1.00400
O92         O  0.86938307  0.31490833  0.61261490    -0.80200
O93         O  0.85951165  0.37431329  0.57325459    -0.82800
C94         C  0.83551593  0.36691453  0.55183851     1.04900
O95         O  0.80457436  0.36276864  0.56184031    -0.75600
O96         O  0.75039906  0.34313835  0.60422777    -0.75700
C97         C  0.75429372  0.31078171  0.60941939     1.04900
O98         O  0.75702388  0.35258346  0.67256403    -0.83100
O99         O  0.82236449  0.35596108  0.70017948    -0.80100
C100        C  0.85474354  0.35987176  0.70280187     1.00400
O101        O  0.87436437  0.35778171  0.67613397    -0.80200
O102        O  0.85872623  0.41588290  0.63637902    -0.82800
C103        C  0.83907019  0.43675579  0.62032236     1.04900
O104        O  0.81439023  0.42565934  0.60154068    -0.75600
O105        O  0.76374956  0.40338616  0.64753569    -0.75700
C106        C  0.74915470  0.38432613  0.66991796     1.04800
Cr107      Cr  0.80186266  0.32861306  0.66218807     1.93700
Cr108      Cr  0.86221983  0.36523854  0.62504643     1.93200
Cr109      Cr  0.78580740  0.38202347  0.60564267     1.39100
O110        O  0.81671911  0.35889578  0.63090066    -1.20800
O111        O  0.63485163  0.23755707  0.67598574    -0.83100
O112        O  0.63086014  0.17139888  0.70267096    -0.80100
C113        C  0.62820589  0.13879934  0.70468550     1.00400
O114        O  0.63044378  0.11993978  0.67758370    -0.80200
O115        O  0.57246791  0.13764485  0.63871306    -0.82800
C116        C  0.55230188  0.15739387  0.62198522     1.04900
O117        O  0.56394416  0.18148831  0.60275556    -0.75600
O118        O  0.58519473  0.23221459  0.64850586    -0.75700
C119        C  0.60352019  0.24637079  0.67165787     1.04900
O120        O  0.68926756  0.21479569  0.63047472    -0.83100
O121        O  0.69032122  0.15128612  0.66230109    -0.80100
C122        C  0.69644689  0.13271775  0.63585280     1.00400
O123        O  0.67250330  0.12566856  0.61454161    -0.80200
O124        O  0.61291649  0.13642112  0.57552394    -0.82800
C125        C  0.62129410  0.16014387  0.55420585     1.04900
O126        O  0.62755617  0.19062838  0.56440791    -0.75600
O127        O  0.64677008  0.24471644  0.60676325    -0.75700
C128        C  0.67888553  0.24006544  0.61249920     1.04800
Cr129      Cr  0.65900978  0.19267676  0.66547904     1.93700
Cr130      Cr  0.62258176  0.13317803  0.62704771     1.93200
Cr131      Cr  0.60750490  0.20977725  0.60752257     1.39100
O132        O  0.62948143  0.17854836  0.63334151    -1.20800
O133        O  0.17492766  0.12678998  0.74418203    -0.83100
O134        O  0.19971807  0.11911614  0.67753228    -0.80100
C135        C  0.20089908  0.11559944  0.64498030     1.00400
O136        O  0.17373718  0.11889321  0.62660318    -0.80200
O137        O  0.13468500  0.06188379  0.64550307    -0.82800
C138        C  0.11906263  0.04186630  0.66637223     1.04900
O139        O  0.10117780  0.05361154  0.69152568    -0.75600
O140        O  0.14772452  0.07679321  0.74097562    -0.75700
C141        C  0.17113270  0.09574080  0.75400048     1.04900
O142        O  0.12983564  0.18029664  0.72051470    -0.83100
O143        O  0.16089215  0.17872894  0.65641221    -0.80100
C144        C  0.13369067  0.18571479  0.63961784     1.00400
O145        O  0.11153595  0.16220367  0.63354361    -0.80200
O146        O  0.07244543  0.10275768  0.64534341    -0.82800
C147        C  0.05166724  0.11130862  0.66938666     1.04900
O148        O  0.06224485  0.11713230  0.69982487    -0.75600
O149        O  0.10590025  0.13875853  0.75199526    -0.75700
C150        C  0.11226622  0.17071399  0.74647102     1.04800
Cr151      Cr  0.16390246  0.14891520  0.69866624     1.93700
Cr152      Cr  0.12361345  0.11203569  0.64100582     1.93200
Cr153      Cr  0.10604793  0.09810470  0.71853789     1.39100
O154        O  0.13106525  0.11939204  0.68612400    -1.20800
O155        O  0.27106786  0.18139759  0.87504331    -0.83100
O156        O  0.33484891  0.18534588  0.84259996    -0.80100
C157        C  0.35456688  0.18971070  0.86848593     1.00400
O158        O  0.36165964  0.16456314  0.88829653    -0.80200
O159        O  0.34989336  0.10432207  0.92538556    -0.82800
C160        C  0.32591200  0.11182926  0.94678549     1.04900
O161        O  0.29511012  0.11669713  0.93687117    -0.75600
O162        O  0.24121916  0.13689004  0.89506053    -0.75700
C163        C  0.24557023  0.16940070  0.89187087     1.04900
O164        O  0.24912450  0.12942234  0.82596357    -0.83100
O165        O  0.31517287  0.12794965  0.79907129    -0.80100
C166        C  0.34747203  0.12279446  0.79702223     1.00400
O167        O  0.36655738  0.12404369  0.82391458    -0.80200
O168        O  0.34925753  0.06522695  0.86104822    -0.82800
C169        C  0.32972141  0.04421501  0.87704117     1.04900
O170        O  0.30514643  0.05493491  0.89615265    -0.75600
O171        O  0.25529675  0.07807003  0.85006620    -0.75700
C172        C  0.24130473  0.09749563  0.82770374     1.04800
Cr173      Cr  0.29371659  0.15362413  0.83801589     1.93700
Cr174      Cr  0.35342363  0.11510331  0.87420589     1.93200
Cr175      Cr  0.27672101  0.09842641  0.89266933     1.39100
O176        O  0.30804611  0.12221934  0.86829813    -1.20800
O177        O  0.12903141  0.27206184  0.80775103    -0.83100
O178        O  0.16076463  0.33650297  0.80867331    -0.80100
C179        C  0.13356076  0.35327996  0.80174566     1.00400
O180        O  0.11160364  0.35953713  0.82543836    -0.80200
O181        O  0.07189701  0.34707409  0.88445637    -0.82800
C182        C  0.05141341  0.32232060  0.87698596     1.04900
O183        O  0.06251861  0.29193619  0.87167987    -0.75600
O184        O  0.10709740  0.24047404  0.85030141    -0.75700
C185        C  0.11239937  0.24572850  0.81813970     1.04900
O186        O  0.17483223  0.24895085  0.86067660    -0.83100
O187        O  0.19963910  0.31516884  0.86788937    -0.80100
C188        C  0.20089491  0.34754272  0.87269576     1.00400
O189        O  0.17386784  0.36631401  0.86953232    -0.80200
O190        O  0.13403997  0.34789153  0.92626253    -0.82800
C191        C  0.11873462  0.32685821  0.94639301     1.04900
O192        O  0.10129188  0.30150064  0.93465179    -0.75600
O193        O  0.14942869  0.25357837  0.91147981    -0.75700
C194        C  0.17255538  0.24047960  0.89221683     1.04800
Cr195      Cr  0.16358470  0.29425444  0.83850677     1.93700
Cr196      Cr  0.12338016  0.35203717  0.87578084     1.93200
Cr197      Cr  0.10686398  0.27440934  0.89042111     1.39100
O198        O  0.13106992  0.30695988  0.86845784    -1.20800
O199        O  0.37116672  0.29798976  0.78099307    -0.83100
O200        O  0.33974621  0.29777615  0.84563347    -0.80100
C201        C  0.36702673  0.29112529  0.86234390     1.00400
O202        O  0.38892134  0.31495840  0.86809435    -0.80200
O203        O  0.42783710  0.37421574  0.85516764    -0.82800
C204        C  0.44787341  0.36741396  0.82984322     1.04900
O205        O  0.43634305  0.36316742  0.79949776    -0.75600
O206        O  0.39139237  0.34113604  0.74904510    -0.75700
C207        C  0.38705348  0.30884575  0.75439607     1.04900
O208        O  0.32387451  0.34985611  0.75852936    -0.83100
O209        O  0.29975934  0.35646012  0.82515865    -0.80100
C210        C  0.29898309  0.36153146  0.85751286     1.00400
O211        O  0.32629632  0.35864940  0.87589300    -0.80200
O212        O  0.36543674  0.41573255  0.85772355    -0.82800
C213        C  0.37985110  0.43634456  0.83656527     1.04900
O214        O  0.39639304  0.42525083  0.81031656    -0.75600
O215        O  0.34787969  0.40130271  0.76313259    -0.75700
C216        C  0.32529330  0.38144414  0.75004085     1.04800
Cr217      Cr  0.33611664  0.32784059  0.80363138     1.93700
Cr218      Cr  0.37654676  0.36528429  0.86098785     1.93200
Cr219      Cr  0.39127819  0.38108655  0.78310429     1.39100
O220        O  0.36817954  0.35835443  0.81599411    -1.20800
O221        O  0.22720456  0.36238604  0.69061821    -0.83100
O222        O  0.16312888  0.33087423  0.69477947    -0.80100
C223        C  0.14424166  0.35732728  0.69979637     1.00400
O224        O  0.13701390  0.37742498  0.67495649    -0.80200
O225        O  0.14810289  0.41469766  0.61495248    -0.82800
C226        C  0.17221852  0.43570671  0.62295695     1.04900
O227        O  0.20293788  0.42542059  0.62745555    -0.75600
O228        O  0.25673288  0.38304670  0.64617886    -0.75700
C229        C  0.25251519  0.37950838  0.67866043     1.04900
O230        O  0.24814370  0.31390647  0.63758516    -0.83100
O231        O  0.18179591  0.28783147  0.63642644    -0.80100
C232        C  0.14938788  0.28617928  0.63196516     1.00400
O233        O  0.13059579  0.31325930  0.63418750    -0.80200
O234        O  0.14775045  0.35060556  0.57558657    -0.82800
C235        C  0.16714802  0.36674480  0.55459077     1.04900
O236        O  0.19183221  0.38574957  0.56518691    -0.75600
O237        O  0.24192298  0.33912291  0.58678126    -0.75700
C238        C  0.25593586  0.31632406  0.60568969     1.04800
Cr239      Cr  0.20392873  0.32606568  0.66252964     1.93700
Cr240      Cr  0.14422713  0.36348485  0.62542283     1.93200
Cr241      Cr  0.22085300  0.38148050  0.60812217     1.39100
O242        O  0.18961517  0.35697637  0.63182613    -1.20800
O243        O  0.32320665  0.23465382  0.63534230    -0.83100
O244        O  0.29884128  0.16775597  0.62844203    -0.80100
C245        C  0.29790922  0.13512951  0.62542996     1.00400
O246        O  0.32516395  0.11691637  0.62921138    -0.80200
O247        O  0.36513058  0.13480806  0.57264556    -0.82800
C248        C  0.38072313  0.15548869  0.55245757     1.04900
O249        O  0.39806669  0.18110755  0.56383511    -0.75600
O250        O  0.35053354  0.23045162  0.58550507    -0.75700
C251        C  0.32694375  0.24375736  0.60408721     1.04900
O252        O  0.36794672  0.21191324  0.68946054    -0.83100
O253        O  0.33685109  0.14775374  0.68880946    -0.80100
C254        C  0.36388306  0.13092802  0.69637997     1.00400
O255        O  0.38656141  0.12479765  0.67337551    -0.80200
O256        O  0.42676732  0.13602818  0.61453720    -0.82800
C257        C  0.44722863  0.16055036  0.62252915     1.04900
O258        O  0.43625874  0.19106640  0.62728267    -0.75600
O259        O  0.39181409  0.24296239  0.64753135    -0.75700
C260        C  0.38570077  0.23762274  0.67953394     1.04800
Cr261      Cr  0.33419165  0.18950864  0.65824488     1.93700
Cr262      Cr  0.37537652  0.13140920  0.62295369     1.93200
Cr263      Cr  0.39233614  0.20886511  0.60759031     1.39100
O264        O  0.36745238  0.17661138  0.62931068    -1.20800
O265        O  0.27813710  0.85866822  0.80881587    -0.83100
O266        O  0.34264525  0.82824197  0.80951886    -0.80100
C267        C  0.35981268  0.85525873  0.80215479     1.00400
O268        O  0.36561586  0.87790894  0.82529308    -0.80200
O269        O  0.35330253  0.91867706  0.88366986    -0.82800
C270        C  0.32872131  0.93894774  0.87547874     1.04900
O271        O  0.29839078  0.92763874  0.87054210    -0.75600
O272        O  0.24692809  0.88266810  0.85060384    -0.75700
C273        C  0.25234124  0.87633972  0.81866497     1.04900
O274        O  0.25550965  0.81391410  0.86341398    -0.83100
O275        O  0.32241561  0.79010290  0.87027433    -0.80100
C276        C  0.35491089  0.78944864  0.87410966     1.00400
O277        O  0.37307764  0.81679159  0.87016973    -0.80200
O278        O  0.35427336  0.85717573  0.92629055    -0.82800
C279        C  0.33331134  0.87271359  0.94629572     1.04900
O280        O  0.30792170  0.89002022  0.93453804    -0.75600
O281        O  0.25909795  0.84201271  0.91289212    -0.75700
C282        C  0.24600500  0.81813044  0.89456753     1.04800
Cr283      Cr  0.30069796  0.82526775  0.84028005     1.93700
Cr284      Cr  0.35827494  0.86708032  0.87580060     1.93200
Cr285      Cr  0.28069596  0.88372672  0.89056101     1.39100
O286        O  0.31320815  0.85883219  0.86912166    -1.20800
O287        O  0.17401845  0.73998378  0.86323022    -0.83100
O288        O  0.20100084  0.67378679  0.86488959    -0.80100
C289        C  0.20291438  0.64140639  0.86994801     1.00400
O290        O  0.17598914  0.62229126  0.86812095    -0.80200
O291        O  0.13807392  0.63868601  0.92668675    -0.82800
C292        C  0.12232357  0.65822136  0.94790266     1.04900
O293        O  0.10378495  0.68329395  0.93755385    -0.75600
O294        O  0.14995407  0.73361736  0.91460504    -0.75700
C295        C  0.17229909  0.74777679  0.89511216     1.04900
O296        O  0.12538855  0.71814325  0.81130371    -0.83100
O297        O  0.15821396  0.65444195  0.80711390    -0.80100
C298        C  0.13220952  0.63502567  0.80212425     1.00400
O299        O  0.11200701  0.62766615  0.82696982    -0.80200
O300        O  0.07430097  0.63848871  0.88714880    -0.82800
C301        C  0.05297249  0.66262292  0.88028925     1.04900
O302        O  0.06294863  0.69359175  0.87618701    -0.75600
O303        O  0.10484929  0.74758670  0.85595144    -0.75700
C304        C  0.10817530  0.74336845  0.82342562     1.04800
Cr305      Cr  0.16226131  0.69538952  0.83906062     1.93700
Cr306      Cr  0.12556033  0.63524940  0.87668598     1.93200
Cr307      Cr  0.10729403  0.71197578  0.89428150     1.39100
O308        O  0.13167666  0.68078353  0.87022197    -1.20800
O309        O  0.13770970  0.81388217  0.74334739    -0.83100
O310        O  0.13011963  0.78838018  0.67711301    -0.80100
C311        C  0.12630356  0.78695239  0.64461307     1.00400
O312        O  0.12993671  0.81391239  0.62581595    -0.80200
O313        O  0.07324793  0.85373279  0.64300842    -0.82800
C314        C  0.05275182  0.86872268  0.66387868     1.04900
O315        O  0.06377816  0.88588566  0.68974080    -0.75600
O316        O  0.08684162  0.83873306  0.73856976    -0.75700
C317        C  0.10623080  0.81598983  0.75197748     1.04900
O318        O  0.19034594  0.85943769  0.71930620    -0.83100
O319        O  0.18957340  0.82666344  0.65562731    -0.80100
C320        C  0.19715524  0.85372430  0.63890213     1.00400
O321        O  0.17402853  0.87617851  0.63273192    -0.80200
O322        O  0.11481096  0.91587716  0.64398826    -0.82800
C323        C  0.12151640  0.93661124  0.66871474     1.04900
O324        O  0.12608363  0.92582972  0.69927839    -0.75600
O325        O  0.14787921  0.88193775  0.75077781    -0.75700
C326        C  0.18001457  0.87663081  0.74529848     1.04800
Cr327      Cr  0.15966234  0.82454004  0.69779554     1.93700
Cr328      Cr  0.12358207  0.86445009  0.63959992     1.93200
Cr329      Cr  0.10773258  0.88131053  0.71708679     1.39100
O330        O  0.13002234  0.85699875  0.68478879    -1.20800
O331        O  0.31037508  0.61916346  0.78378377    -0.83100
O332        O  0.31139629  0.65184384  0.84760069    -0.80100
C333        C  0.30376944  0.62478716  0.86429040     1.00400
O334        O  0.32698587  0.60241114  0.87061824    -0.80200
O335        O  0.38619712  0.56251607  0.85930497    -0.82800
C336        C  0.37917042  0.54171364  0.83470321     1.04900
O337        O  0.37482520  0.55243202  0.80406241    -0.75600
O338        O  0.35268938  0.59634621  0.75235339    -0.75700
C339        C  0.32055676  0.60215926  0.75759674     1.04900
O340        O  0.36311963  0.66454254  0.75987847    -0.83100
O341        O  0.37080363  0.69011468  0.82604582    -0.80100
C342        C  0.37437789  0.69171107  0.85855960     1.00400
O343        O  0.37119719  0.66468140  0.87736157    -0.80200
O344        O  0.42815527  0.62477370  0.85988757    -0.82800
C345        C  0.44871510  0.61011108  0.83875585     1.04900
O346        O  0.43748101  0.59263089  0.81313606    -0.75600
O347        O  0.41392665  0.63950225  0.76434992    -0.75700
C348        C  0.39453513  0.66232817  0.75109933     1.04800
Cr349      Cr  0.34125353  0.65390509  0.80540656     1.93700
Cr350      Cr  0.37759020  0.61405603  0.86356907     1.93200
Cr351      Cr  0.39312125  0.59698613  0.78602315     1.39100
O352        O  0.37094392  0.62140358  0.81836815    -1.20800
O353        O  0.37440388  0.75979518  0.69160150    -0.83100
O354        O  0.34191123  0.82368313  0.69545142    -0.80100
C355        C  0.36809642  0.84283284  0.70045355     1.00400
O356        O  0.38846453  0.84990995  0.67562931    -0.80200
O357        O  0.42593119  0.83858551  0.61517321    -0.82800
C358        C  0.44702798  0.81421297  0.62189119     1.04900
O359        O  0.43675235  0.78344358  0.62645366    -0.75600
O360        O  0.39459513  0.73005064  0.64698443    -0.75700
C361        C  0.39159922  0.73454091  0.67950660     1.04900
O362        O  0.32564506  0.73804949  0.63974483    -0.83100
O363        O  0.29917145  0.80438486  0.63776553    -0.80100
C364        C  0.29754605  0.83677521  0.63270344     1.00400
O365        O  0.32456992  0.85570812  0.63462380    -0.80200
O366        O  0.36199045  0.83880576  0.57586462    -0.82800
C367        C  0.37742635  0.81898758  0.55464638     1.04900
O368        O  0.39597368  0.79396389  0.56509541    -0.75600
O369        O  0.34949763  0.74441014  0.58829261    -0.75700
C370        C  0.32708467  0.73048275  0.60780039     1.04800
Cr371      Cr  0.33765341  0.78263037  0.66374811     1.93700
Cr372      Cr  0.37477628  0.84234725  0.62588745     1.93200
Cr373      Cr  0.39232639  0.76549466  0.60850404     1.39100
O374        O  0.36830661  0.79692368  0.63253312    -1.20800
O375        O  0.24358273  0.66512675  0.63929612    -0.83100
O376        O  0.17673620  0.68877055  0.63268949    -0.80100
C377        C  0.14425839  0.68942856  0.62881869     1.00400
O378        O  0.12607556  0.66212556  0.63267528    -0.80200
O379        O  0.14523196  0.62250577  0.57595191    -0.82800
C380        C  0.16617307  0.60688331  0.55592985     1.04900
O381        O  0.19135553  0.58933602  0.56782310    -0.75600
O382        O  0.23989805  0.63722331  0.58970723    -0.75700
C383        C  0.25293943  0.66104199  0.60808416     1.04900
O384        O  0.22140814  0.62017107  0.69391052    -0.83100
O385        O  0.15662110  0.65020485  0.69318683    -0.80100
C386        C  0.13957505  0.62305392  0.70031380     1.00400
O387        O  0.13360884  0.60068866  0.67690322    -0.80200
O388        O  0.14608853  0.56070567  0.61786419    -0.82800
C389        C  0.17061111  0.54040584  0.62603515     1.04900
O390        O  0.20079814  0.55166860  0.63179256    -0.75600
O391        O  0.25255208  0.59646175  0.65195026    -0.75700
C392        C  0.24743336  0.60287229  0.68395831     1.04800
Cr393      Cr  0.19854510  0.65356611  0.66250923     1.93700
Cr394      Cr  0.14100772  0.61205859  0.62645352     1.93200
Cr395      Cr  0.21856837  0.59548471  0.61193265     1.39100
O396        O  0.18605210  0.62021671  0.63344054    -1.20800
O397        O  0.82521340  0.85205222  0.74241614    -0.83100
O398        O  0.80019664  0.85691931  0.67616037    -0.80100
C399        C  0.79859884  0.86013298  0.64367832     1.00400
O400        O  0.82571777  0.85783858  0.62494836    -0.80200
O401        O  0.86380218  0.91614407  0.64368914    -0.82800
C402        C  0.87993095  0.93648732  0.66390519     1.04900
O403        O  0.89866710  0.92480612  0.68835963    -0.75600
O404        O  0.85223372  0.90214678  0.73799489    -0.75700
C405        C  0.82888963  0.88347074  0.75146916     1.04900
O406        O  0.87135029  0.79819041  0.71960121    -0.83100
O407        O  0.84073695  0.79753338  0.65548294    -0.80100
C408        C  0.86767727  0.79168136  0.63752170     1.00400
O409        O  0.88878453  0.81605327  0.63097552    -0.80200
O410        O  0.92700473  0.87599960  0.64296405    -0.82800
C411        C  0.94796101  0.86721573  0.66672242     1.04900
O412        O  0.93752135  0.86117418  0.69718989    -0.75600
O413        O  0.89415076  0.84072659  0.75043244    -0.75700
C414        C  0.88820698  0.80856034  0.74564338     1.04800
Cr415      Cr  0.83676317  0.82850085  0.69733627     1.93700
Cr416      Cr  0.87581332  0.86596910  0.63890088     1.93200
Cr417      Cr  0.89388162  0.88057243  0.71598435     1.39100
O418        O  0.86889820  0.85853377  0.68408572    -1.20800
O419        O  0.87043930  0.70848959  0.80862763    -0.83100
O420        O  0.83934256  0.64377475  0.80963680    -0.80100
C421        C  0.86686904  0.62755283  0.80257511     1.00400
O422        O  0.88875435  0.62152433  0.82628828    -0.80200
O423        O  0.92780505  0.63432271  0.88562352    -0.82800
C424        C  0.94807133  0.65929193  0.87829100     1.04900
O425        O  0.93669257  0.68951406  0.87299922    -0.75600
O426        O  0.89211480  0.74041119  0.85107229    -0.75700
C427        C  0.88696135  0.73494805  0.81890049     1.04900
O428        O  0.82410613  0.73137759  0.86135662    -0.83100
O429        O  0.79974569  0.66479474  0.86859937    -0.80100
C430        C  0.79869859  0.63233671  0.87293643     1.00400
O431        O  0.82607186  0.61393825  0.87014471    -0.80200
O432        O  0.86543385  0.63287375  0.92723580    -0.82800
C433        C  0.88031957  0.65407217  0.94754646     1.04900
O434        O  0.89723504  0.67991321  0.93595341    -0.75600
O435        O  0.84932740  0.72759434  0.91219628    -0.75700
C436        C  0.82641859  0.74048997  0.89272308     1.04800
Cr437      Cr  0.83589168  0.68607711  0.83937964     1.93700
Cr438      Cr  0.87643719  0.62884991  0.87669372     1.93200
Cr439      Cr  0.89208158  0.70674681  0.89145215     1.39100
O440        O  0.86829934  0.67385267  0.86947124    -1.20800
O441        O  0.72989264  0.80143391  0.87325569    -0.83100
O442        O  0.66607634  0.79832909  0.84113891    -0.80100
C443        C  0.64788151  0.79280849  0.86785080     1.00400
O444        O  0.64114556  0.81727797  0.88871355    -0.80200
O445        O  0.65245376  0.87754762  0.92625602    -0.82800
C446        C  0.67712932  0.87088203  0.94697266     1.04900
O447        O  0.70771226  0.86628683  0.93619702    -0.75600
O448        O  0.76032636  0.84564230  0.89321612    -0.75700
C449        C  0.75535326  0.81318141  0.89027165     1.04900
O450        O  0.75177756  0.85320120  0.82459871    -0.83100
O451        O  0.68511766  0.85591824  0.79865530    -0.80100
C452        C  0.65258499  0.86006170  0.79740027     1.00400
O453        O  0.63413700  0.85848123  0.82485975    -0.80200
O454        O  0.65109342  0.91716605  0.86279522    -0.82800
C455        C  0.67099806  0.93813236  0.87838626     1.04900
O456        O  0.69673966  0.92761798  0.89582280    -0.75600
O457        O  0.74590415  0.90468708  0.84849205    -0.75700
C458        C  0.75960391  0.88505654  0.82599257     1.04800
Cr459      Cr  0.70715814  0.82962963  0.83679746     1.93700
Cr460      Cr  0.64806521  0.86708283  0.87508264     1.93200
Cr461      Cr  0.72514150  0.88435167  0.89155960     1.39100
O462        O  0.69335801  0.86067434  0.86780856    -1.20800
O463        O  0.75535618  0.63054231  0.67229236    -0.83100
O464        O  0.82128349  0.62786931  0.69920750    -0.80100
C465        C  0.85349516  0.62203791  0.70121938     1.00400
O466        O  0.87280007  0.62300179  0.67425667    -0.80200
O467        O  0.85722248  0.56426382  0.63578691    -0.82800
C468        C  0.83712933  0.54268316  0.62120388     1.04900
O469        O  0.81096327  0.55280831  0.60413214    -0.75600
O470        O  0.76210653  0.57803420  0.65117798    -0.75700
C471        C  0.74824491  0.59855808  0.67286398     1.04900
O472        O  0.77780980  0.68060534  0.62255369    -0.83100
O473        O  0.84145603  0.68454370  0.65629597    -0.80100
C474        C  0.86011624  0.68966315  0.62988392     1.00400
O475        O  0.86740542  0.66468241  0.60979916    -0.80200
O476        O  0.85620114  0.60469991  0.57207911    -0.82800
C477        C  0.83145163  0.61031964  0.55104156     1.04900
O478        O  0.80046025  0.61312938  0.56151990    -0.75600
O479        O  0.74774821  0.63542145  0.60413270    -0.75700
C480        C  0.75202556  0.66806267  0.60650041     1.04800
Cr481      Cr  0.80023296  0.65336219  0.66010566     1.93700
Cr482      Cr  0.85997250  0.61473009  0.62352767     1.93200
Cr483      Cr  0.78289984  0.59666054  0.60706451     1.39100
O484        O  0.81454456  0.62130023  0.63011983    -1.20800
O485        O  0.64105087  0.66474694  0.75546335    -0.83100
O486        O  0.64017472  0.69079911  0.82151555    -0.80100
C487        C  0.63503924  0.69262226  0.85384033     1.00400
O488        O  0.63501316  0.66542696  0.87263329    -0.80200
O489        O  0.57538709  0.62902593  0.85499690    -0.82800
C490        C  0.55427879  0.61293546  0.83564435     1.04900
O491        O  0.56497909  0.59472429  0.81034762    -0.75600
O492        O  0.58893646  0.64230803  0.76210006    -0.75700
C493        C  0.60898321  0.66446064  0.74856304     1.04900
O494        O  0.69191306  0.61447303  0.77600463    -0.83100
O495        O  0.69602179  0.64599500  0.84042163    -0.80100
C496        C  0.69972610  0.61975132  0.85968378     1.00400
O497        O  0.67423272  0.60032608  0.86667591    -0.80200
O498        O  0.61376659  0.56440620  0.85395958    -0.82800
C499        C  0.62113761  0.54362576  0.82937319     1.04900
O500        O  0.62635706  0.55421857  0.79884997    -0.75600
O501        O  0.64687622  0.59687124  0.74566965    -0.75700
C502        C  0.67950807  0.59914219  0.74976347     1.04800
Cr503      Cr  0.66488070  0.65168631  0.79950363     1.93700
Cr504      Cr  0.62519176  0.61536384  0.85871556     1.93200
Cr505      Cr  0.60853524  0.59878559  0.78172943     1.39100
O506        O  0.63270407  0.62196054  0.81347329    -1.20800
O507        O  0.67359068  0.74073158  0.63862825    -0.83100
O508        O  0.69964744  0.80705012  0.63348568    -0.80100
C509        C  0.70089408  0.83947374  0.62858258     1.00400
O510        O  0.67384689  0.85828178  0.63109048    -0.80200
O511        O  0.63485680  0.84175150  0.57371691    -0.82800
C512        C  0.62021160  0.82110724  0.55278999     1.04900
O513        O  0.60329640  0.79500512  0.56336102    -0.75600
O514        O  0.65150250  0.74739035  0.58678458    -0.75700
C515        C  0.67396941  0.73411462  0.60658613     1.04900
O516        O  0.62575771  0.76390975  0.69008879    -0.83100
O517        O  0.65945102  0.82746322  0.69179550    -0.80100
C518        C  0.63330305  0.84603810  0.69811894     1.00400
O519        O  0.61137137  0.85214655  0.67449659    -0.80200
O520        O  0.57228625  0.84007610  0.61516870    -0.82800
C521        C  0.55174943  0.81495807  0.62103487     1.04900
O522        O  0.56258251  0.78420578  0.62441685    -0.75600
O523        O  0.60618607  0.73271116  0.64611996    -0.75700
C524        C  0.60904548  0.73808148  0.67854337     1.04800
Cr525      Cr  0.66215217  0.78587547  0.66117502     1.93700
Cr526      Cr  0.62354704  0.84472132  0.62414981     1.93200
Cr527      Cr  0.60769272  0.76727747  0.60687064     1.39100
O528        O  0.63086714  0.79947171  0.63052428    -1.20800
O529        O  0.87161531  0.26916330  0.19239840    -0.83100
O530        O  0.84090766  0.33339555  0.19365676    -0.80100
C531        C  0.86760790  0.35176755  0.19914652     1.00400
O532        O  0.88870669  0.35812798  0.17475636    -0.80200
O533        O  0.92678354  0.34595781  0.11488081    -0.82800
C534        C  0.94773632  0.32203565  0.12333884     1.04900
O535        O  0.93725942  0.29151456  0.12910810    -0.75600
O536        O  0.89377243  0.23835594  0.14946637    -0.75700
C537        C  0.88817441  0.24302185  0.18167940     1.04900
O538        O  0.82490742  0.24671938  0.13902912    -0.83100
O539        O  0.79979317  0.31311737  0.13479215    -0.80100
C540        C  0.79830795  0.34561200  0.13130213     1.00400
O541        O  0.82550634  0.36423993  0.13335531    -0.80200
O542        O  0.86340063  0.34565076  0.07505267    -0.82800
C543        C  0.87946808  0.32556893  0.05454902     1.04900
O544        O  0.89808839  0.30088480  0.06592594    -0.75600
O545        O  0.85144458  0.25130039  0.08866954    -0.75700
C546        C  0.82825401  0.23778951  0.10754895     1.04800
Cr547      Cr  0.83670813  0.29167822  0.16263179     1.93700
Cr548      Cr  0.87558905  0.35018352  0.12504776     1.93200
Cr549      Cr  0.89338023  0.27304359  0.10995627     1.39100
O550        O  0.86862704  0.30497010  0.13236376    -1.20800
O551        O  0.77492094  0.36799590  0.31017531    -0.83100
O552        O  0.83857126  0.33472877  0.30463285    -0.80100
C553        C  0.85798840  0.36075600  0.30019406     1.00400
O554        O  0.86552841  0.38034572  0.32544741    -0.80200
O555        O  0.85464745  0.41672706  0.38627889    -0.82800
C556        C  0.83008243  0.43791006  0.38050561     1.04900
O557        O  0.79910081  0.42773169  0.37711306    -0.75600
O558        O  0.74553741  0.38580023  0.35600686    -0.75700
C559        C  0.74941744  0.38407061  0.32329944     1.04900
O560        O  0.75358147  0.31745603  0.36034318    -0.83100
O561        O  0.81949609  0.29051643  0.36087930    -0.80100
C562        C  0.85175925  0.28844059  0.36634698     1.00400
O563        O  0.87104236  0.31532398  0.36535285    -0.80200
O564        O  0.85558011  0.35217891  0.42492893    -0.68400
C565        C  0.83618420  0.36731555  0.44673599     1.04900
O566        O  0.81049849  0.38530356  0.43701414    -0.75600
O567        O  0.76123704  0.33849408  0.41277884    -0.75700
C568        C  0.74718396  0.31677006  0.39251232     1.04800
Cr569      Cr  0.79789640  0.33004430  0.33646393     1.93700
Cr570      Cr  0.85824694  0.36565275  0.37495118     1.93200
Cr571      Cr  0.78157326  0.38252222  0.39387778     1.39100
O572        O  0.81274524  0.35949145  0.36862220    -1.20800
O573        O  0.82282175  0.12701363  0.25871025    -0.83100
O574        O  0.79844805  0.12076600  0.32547773    -0.80100
C575        C  0.79752330  0.11695949  0.35800959     1.00400
O576        O  0.82503070  0.11995567  0.37617044    -0.80200
O577        O  0.86453594  0.06278818  0.35783024    -0.82800
C578        C  0.87947268  0.04231811  0.33683409     1.04900
O579        O  0.89637014  0.05353231  0.31086975    -0.75600
O580        O  0.84810840  0.07620289  0.26307807    -0.75700
C581        C  0.82510505  0.09550791  0.25005812     1.04900
O582        O  0.86916220  0.17999352  0.28075084    -0.83100
O583        O  0.83811074  0.17992461  0.34542530    -0.80100
C584        C  0.86567321  0.18723360  0.36139660     1.00400
O585        O  0.88769063  0.16369783  0.36759654    -0.80200
O586        O  0.92690495  0.10436684  0.35548486    -0.82800
C587        C  0.94706326  0.11140492  0.33030737     1.04900
O588        O  0.93552519  0.11618933  0.30008512    -0.75600
O589        O  0.89072600  0.13718114  0.24917453    -0.75700
C590        C  0.88582414  0.16941537  0.25448793     1.04800
Cr591      Cr  0.83460645  0.14962919  0.30360587     1.93700
Cr592      Cr  0.87545137  0.11326658  0.36110567     1.93200
Cr593      Cr  0.89089501  0.09738755  0.28338862     1.39100
O594        O  0.86712302  0.11977231  0.31607871    -1.20800
O595        O  0.75086711  0.16508661  0.13858596    -0.83100
O596        O  0.68447300  0.19190614  0.13652760    -0.80100
C597        C  0.65195425  0.19355389  0.13241046     1.00400
O598        O  0.63317748  0.16635776  0.13418774    -0.80200
O599        O  0.64918809  0.12848020  0.07537868    -0.82800
C600        C  0.66887598  0.11317453  0.05396289     1.04900
O601        O  0.69437960  0.09507638  0.06406993    -0.75600
O602        O  0.74433761  0.14143740  0.08709864    -0.75700
C603        C  0.75843933  0.16371368  0.10667074     1.04900
O604        O  0.72882222  0.11648439  0.19033628    -0.83100
O605        O  0.66539396  0.14949913  0.19420455    -0.80100
C606        C  0.64667326  0.12315521  0.19973365     1.00400
O607        O  0.63956845  0.10241048  0.17528535    -0.80200
O608        O  0.64999423  0.06466552  0.11506303    -0.82800
C609        C  0.67440624  0.04358466  0.12169620     1.04900
O610        O  0.70526465  0.05390676  0.12535407    -0.75600
O611        O  0.75848846  0.09607930  0.14573879    -0.75700
C612        C  0.75382337  0.09894983  0.17824828     1.04800
Cr613      Cr  0.70627072  0.15336160  0.16249489     1.93700
Cr614      Cr  0.64639665  0.11597313  0.12545741     1.93200
Cr615      Cr  0.72309998  0.09851279  0.10731402     1.39100
O616        O  0.69183084  0.12260287  0.13147001    -1.20800
O617        O  0.62547946  0.30169103  0.22731638    -0.83100
O618        O  0.65912123  0.29986178  0.16353937    -0.80100
C619        C  0.63305074  0.29327120  0.14500675     1.00400
O620        O  0.61106428  0.31677515  0.13856290    -0.80200
O621        O  0.57155559  0.37603277  0.14995238    -0.82800
C622        C  0.55094621  0.37020095  0.17503603     1.04900
O623        O  0.56169308  0.36699256  0.20580201    -0.75600
O624        O  0.60511493  0.34581560  0.25784963    -0.75700
C625        C  0.60882874  0.31330118  0.25320929     1.04900
O626        O  0.67267229  0.35378694  0.24976893    -0.83100
O627        O  0.69887619  0.35858595  0.18350137    -0.80100
C628        C  0.70039179  0.36281194  0.15101758     1.00400
O629        O  0.67338881  0.36032229  0.13216335    -0.80200
O630        O  0.63382695  0.41780980  0.14804410    -0.82800
C631        C  0.61891244  0.43894388  0.16833720     1.04900
O632        O  0.60211854  0.42851765  0.19466192    -0.75600
O633        O  0.65000677  0.40544814  0.24303952    -0.75700
C634        C  0.67244238  0.38578137  0.25661977     1.04800
Cr635      Cr  0.66152887  0.33083588  0.20486352     1.93700
Cr636      Cr  0.62292454  0.36723625  0.14556778     1.93200
Cr637      Cr  0.60654105  0.38498037  0.22285035     1.39100
O638        O  0.63007574  0.36123106  0.19092971    -1.20800
O639        O  0.69095176  0.21371543  0.37819212    -0.83100
O640        O  0.69421171  0.14956114  0.34584796    -0.80100
C641        C  0.69840453  0.13056405  0.37217587     1.00400
O642        O  0.67317784  0.12388881  0.39209911    -0.80200
O643        O  0.61249114  0.13609114  0.42826871    -0.82800
C644        C  0.61932256  0.16052443  0.44938773     1.04900
O645        O  0.62388796  0.19132567  0.43909023    -0.75600
O646        O  0.64624670  0.24429546  0.39669646    -0.75700
C647        C  0.67882619  0.23989984  0.39391248     1.04900
O648        O  0.64081660  0.23576279  0.32829375    -0.83100
O649        O  0.63817488  0.16965045  0.30196424    -0.80100
C650        C  0.63326315  0.13728959  0.29994379     1.00400
O651        O  0.63365863  0.11830601  0.32701834    -0.80200
O652        O  0.57427185  0.13562179  0.36362491    -0.82800
C653        C  0.55297651  0.15550567  0.37882091     1.04900
O654        O  0.56332259  0.18102477  0.39691450    -0.75600
O655        O  0.58851101  0.22984191  0.35026957    -0.75700
C656        C  0.60892697  0.24328923  0.32831272     1.04800
Cr657      Cr  0.66355985  0.19100254  0.34095293     1.93700
Cr658      Cr  0.62397971  0.13188388  0.37724919     1.93200
Cr659      Cr  0.60723836  0.20910520  0.39400585     1.39100
O660        O  0.63138594  0.17721412  0.37082902    -1.20800
O661        O  0.87110569  0.79857894  0.28037240    -0.83100
O662        O  0.83961686  0.79878164  0.34424652    -0.80100
C663        C  0.86676898  0.79288740  0.36165403     1.00400
O664        O  0.88764966  0.81722069  0.36852239    -0.80200
O665        O  0.92613168  0.87658948  0.35714071    -0.82800
C666        C  0.94737727  0.86771824  0.33346180     1.04900
O667        O  0.93712623  0.86171345  0.30295753    -0.75600
O668        O  0.89458853  0.84081043  0.24964074    -0.75700
C669        C  0.88881622  0.80868585  0.25472060     1.04900
O670        O  0.82522893  0.85208224  0.25687246    -0.83100
O671        O  0.79894092  0.85750509  0.32298667    -0.80100
C672        C  0.79681314  0.86122554  0.35545167     1.00400
O673        O  0.82382704  0.85902701  0.37440385    -0.80200
O674        O  0.86282302  0.91674371  0.35605736    -0.82800
C675        C  0.87938670  0.93689755  0.33608984     1.04900
O676        O  0.89796757  0.92524525  0.31137673    -0.75600
O677        O  0.85225497  0.90221282  0.26110886    -0.75700
C678        C  0.82906731  0.88336942  0.24758022     1.04800
Cr679      Cr  0.83610082  0.82907372  0.30218565     1.93700
Cr680      Cr  0.87456584  0.86680592  0.36078399     1.93200
Cr681      Cr  0.89362682  0.88092933  0.28378119     1.39100
O682        O  0.86810233  0.85923177  0.31554423    -1.20800
O683        O  0.82755998  0.73178320  0.14186259    -0.83100
O684        O  0.80078421  0.66633081  0.13613237    -0.80100
C685        C  0.79837601  0.63416082  0.13054122     1.00400
O686        O  0.82517200  0.61470676  0.13158539    -0.80200
O687        O  0.86406715  0.63342778  0.07373367    -0.82800
C688        C  0.88019869  0.65381668  0.05356482     1.04900
O689        O  0.89852188  0.67854341  0.06541083    -0.75600
O690        O  0.85187921  0.72727063  0.09040231    -0.75700
C691        C  0.82935916  0.74052538  0.11029486     1.04900
O692        O  0.87501557  0.70736089  0.19330623    -0.83100
O693        O  0.84231189  0.64358804  0.19330476    -0.80100
C694        C  0.86924298  0.62565113  0.19840079     1.00400
O695        O  0.88953409  0.61896622  0.17341801    -0.80200
O696        O  0.92751277  0.63192816  0.11384645    -0.82800
C697        C  0.94879089  0.65584597  0.12196807     1.04900
O698        O  0.93860596  0.68644142  0.12795988    -0.75600
O699        O  0.89572032  0.73920399  0.15049031    -0.75700
C700        C  0.89109910  0.73391543  0.18275004     1.04800
Cr701      Cr  0.83883585  0.68614851  0.16375440     1.93700
Cr702      Cr  0.87604837  0.62796095  0.12383685     1.93200
Cr703      Cr  0.89439293  0.70532329  0.11018942     1.39100
O704        O  0.86982818  0.67307087  0.13232302    -1.20800
O705        O  0.75186134  0.85252306  0.17416466    -0.83100
O706        O  0.68523574  0.85536007  0.19947107    -0.80100
C707        C  0.65277071  0.85948460  0.20077412     1.00400
O708        O  0.63442584  0.85851302  0.17337840    -0.80200
O709        O  0.65266760  0.91762538  0.13693319    -0.82800
C710        C  0.67270042  0.93855988  0.12145031     1.04900
O711        O  0.69799422  0.92781987  0.10328746    -0.75600
O712        O  0.74674842  0.90405872  0.15031637    -0.75700
C713        C  0.76007001  0.88430791  0.17281415     1.04900
O714        O  0.73033393  0.80096202  0.12497206    -0.83100
O715        O  0.66594574  0.79812547  0.15610102    -0.80100
C716        C  0.64699664  0.79355140  0.12974374     1.00400
O717        O  0.64083803  0.81838220  0.10922021    -0.80200
O718        O  0.65347453  0.87892549  0.07265134    -0.82800
C719        C  0.67789290  0.87146839  0.05178015     1.04900
O720        O  0.70842973  0.86629273  0.06235822    -0.75600
O721        O  0.76110204  0.84509203  0.10541588    -0.75700
C722        C  0.75645718  0.81261722  0.10889541     1.04800
Cr723      Cr  0.70726379  0.82916952  0.16129995     1.93700
Cr724      Cr  0.64875301  0.86782024  0.12357150     1.93200
Cr725      Cr  0.72602366  0.88409544  0.10710346     1.39100
O726        O  0.69393914  0.86055132  0.13060339    -1.20800
O727        O  0.63737325  0.74159425  0.32621494    -0.83100
O728        O  0.63395510  0.80773716  0.30028151    -0.80100
C729        C  0.63028702  0.84022223  0.29849955     1.00400
O730        O  0.63107377  0.85904316  0.32567883    -0.80200
O731        O  0.57210869  0.84123388  0.36353070    -0.82800
C732        C  0.55141267  0.82140444  0.37970537     1.04900
O733        O  0.56258082  0.79629464  0.39781948    -0.75600
O734        O  0.58616427  0.74681367  0.35089090    -0.75700
C735        C  0.60563411  0.73340344  0.32803640     1.04900
O736        O  0.68948330  0.76408092  0.37424239    -0.83100
O737        O  0.69161800  0.82801707  0.34241914    -0.80100
C738        C  0.69663598  0.84687194  0.36881847     1.00400
O739        O  0.67190484  0.85359214  0.38941481    -0.80200
O740        O  0.61186018  0.84163437  0.42699657    -0.82800
C741        C  0.62001434  0.81771757  0.44806823     1.04900
O742        O  0.62495471  0.78691706  0.43785066    -0.75600
O743        O  0.64578274  0.73347438  0.39495795    -0.75700
C744        C  0.67817133  0.73807156  0.39068726     1.04800
Cr745      Cr  0.66066987  0.78648173  0.33821631     1.93700
Cr746      Cr  0.62224776  0.84549602  0.37585537     1.93200
Cr747      Cr  0.60654675  0.76838992  0.39358639     1.39100
O748        O  0.62958470  0.80019089  0.36925292    -1.20800
O749        O  0.75834419  0.66524901  0.35683424    -0.83100
O750        O  0.82422950  0.69062176  0.36209895    -0.80100
C751        C  0.85627329  0.69228725  0.36835348     1.00400
O752        O  0.87531507  0.66524573  0.36717154    -0.80200
O753        O  0.85596430  0.62724554  0.42518728    -0.82800
C754        C  0.83517313  0.61164958  0.44539575     1.04900
O755        O  0.81005412  0.59395922  0.43362105    -0.75600
O756        O  0.76262480  0.64173880  0.40856967    -0.75700
C757        C  0.74974143  0.66421890  0.38850509     1.04900
O758        O  0.78175640  0.61646788  0.30579361    -0.83100
O759        O  0.84612183  0.64817200  0.30515195    -0.80100
C760        C  0.86378754  0.62098676  0.30028322     1.00400
O761        O  0.87011117  0.60085875  0.32540934    -0.80200
O762        O  0.85617499  0.56361263  0.38521530    -0.82800
C763        C  0.83169178  0.54280964  0.37769507     1.04900
O764        O  0.80137689  0.55358801  0.37163562    -0.75600
O765        O  0.74962126  0.59727548  0.34912509    -0.75700
C766        C  0.75496126  0.60107292  0.31680468     1.04800
Cr767      Cr  0.80370960  0.65271050  0.33485540     1.93700
Cr768      Cr  0.86118689  0.61483133  0.37500495     1.93200
Cr769      Cr  0.78350410  0.59838793  0.38907114     1.39100
O770        O  0.81624245  0.62189346  0.36655064    -1.20800
O771        O  0.69013154  0.62074865  0.22040387    -0.83100
O772        O  0.69105536  0.65153831  0.15647239    -0.80100
C773        C  0.69705302  0.62413024  0.13934199     1.00400
O774        O  0.67265217  0.60314757  0.13274600    -0.80200
O775        O  0.61253115  0.56521568  0.14429628    -0.82800
C776        C  0.62046230  0.54425894  0.16843855     1.04900
O777        O  0.62624923  0.55498385  0.19883952    -0.75600
O778        O  0.64754014  0.59825875  0.25144216    -0.75700
C779        C  0.67971840  0.60342558  0.24614301     1.04900
O780        O  0.63716884  0.66763789  0.24348964    -0.83100
O781        O  0.63241838  0.69289148  0.17690712    -0.80100
C782        C  0.62920751  0.69441785  0.14436824     1.00400
O783        O  0.63120092  0.66700918  0.12584107    -0.80200
O784        O  0.57273908  0.62874367  0.14424129    -0.82800
C785        C  0.55223336  0.61298255  0.16460078     1.04900
O786        O  0.56352939  0.59490686  0.18971301    -0.75600
O787        O  0.58676221  0.64126253  0.23938683    -0.75700
C788        C  0.60584988  0.66428047  0.25288097     1.04800
Cr789      Cr  0.66028877  0.65581664  0.19828938     1.93700
Cr790      Cr  0.62283557  0.61661171  0.14003145     1.93200
Cr791      Cr  0.60764991  0.59918790  0.21728506     1.39100
O792        O  0.62993214  0.62386115  0.18521721    -1.20800
O793        O  0.22169421  0.29740012  0.37341534    -0.83100
O794        O  0.15800351  0.29586216  0.34130394    -0.80100
C795        C  0.14005871  0.28916241  0.36796588     1.00400
O796        O  0.13341027  0.31291528  0.38974243    -0.80200
O797        O  0.14430912  0.37235768  0.42907513    -0.82800
C798        C  0.16877923  0.36519106  0.44982133     1.04900
O799        O  0.19948651  0.36096383  0.43920444    -0.75600
O800        O  0.25214575  0.34059633  0.39565102    -0.75700
C801        C  0.24738749  0.30830144  0.39054056     1.04900
O802        O  0.24441135  0.35076384  0.32711205    -0.83100
O803        O  0.17807095  0.35551454  0.30166597    -0.80100
C804        C  0.14560608  0.35946447  0.30031064     1.00400
O805        O  0.12680719  0.35622713  0.32732863    -0.80200
O806        O  0.14351434  0.41375154  0.36672311    -0.82800
C807        C  0.16370992  0.43457269  0.38218335     1.04900
O808        O  0.18924602  0.42367386  0.39982395    -0.75600
O809        O  0.23876340  0.40136749  0.35276305    -0.75700
C810        C  0.25262024  0.38244792  0.32977775     1.04800
Cr811      Cr  0.19942720  0.32720927  0.33834025     1.93700
Cr812      Cr  0.14034087  0.36328918  0.37771642     1.93200
Cr813      Cr  0.21739049  0.37997083  0.39503651     1.39100
O814        O  0.18566495  0.35707901  0.37050363    -1.20800
O815        O  0.32364130  0.35169266  0.24991842    -0.83100
O816        O  0.29809219  0.35382400  0.18319626    -0.80100
C817        C  0.29694371  0.35911464  0.15082732     1.00400
O818        O  0.32424899  0.35745306  0.13223250    -0.80200
O819        O  0.36197599  0.41615289  0.14937239    -0.82800
C820        C  0.37718214  0.43727969  0.16947523     1.04900
O821        O  0.39467340  0.42671595  0.19515399    -0.75600
O822        O  0.34731662  0.40328080  0.24407637    -0.75700
C823        C  0.32504988  0.38353843  0.25795705     1.04900
O824        O  0.37294820  0.30007028  0.22853614    -0.83100
O825        O  0.34102629  0.29616146  0.16436768    -0.80100
C826        C  0.36742464  0.29103666  0.14553925     1.00400
O827        O  0.38790260  0.31586308  0.13873253    -0.80200
O828        O  0.42543482  0.37617571  0.15064028    -0.82800
C829        C  0.44612460  0.36966605  0.17537196     1.04900
O830        O  0.43537780  0.36545833  0.20604189    -0.75600
O831        O  0.39237660  0.34471846  0.25867890    -0.75700
C832        C  0.38968870  0.31219830  0.25404116     1.04800
Cr833      Cr  0.33634368  0.32788526  0.20537170     1.93700
Cr834      Cr  0.37432775  0.36583640  0.14618308     1.93200
Cr835      Cr  0.39055101  0.38324853  0.22336617     1.39100
O836        O  0.36709182  0.35924181  0.19151822    -1.20800
O837        O  0.36095478  0.23372177  0.32663802    -0.83100
O838        O  0.36767379  0.16780471  0.30004187    -0.80100
C839        C  0.37208509  0.13536147  0.29827937     1.00400
O840        O  0.36939515  0.11624597  0.32508448    -0.80200
O841        O  0.42688178  0.13310485  0.36407045    -0.82800
C842        C  0.44763395  0.15382662  0.37893768     1.04900
O843        O  0.43670466  0.17952915  0.39643864    -0.75600
O844        O  0.41252250  0.22830268  0.34979088    -0.75700
C845        C  0.39261459  0.24181268  0.32758744     1.04900
O846        O  0.30938827  0.20937406  0.37332466    -0.83100
O847        O  0.30923148  0.14603111  0.33946111    -0.80100
C848        C  0.30247143  0.12831295  0.36608176     1.00400
O849        O  0.32613569  0.12191566  0.38791882    -0.80200
O850        O  0.38585108  0.13336039  0.42671552    -0.82800
C851        C  0.37932551  0.15791279  0.44770345     1.04900
O852        O  0.37497429  0.18869385  0.43739652    -0.75600
O853        O  0.35247758  0.24075357  0.39452514    -0.75700
C854        C  0.32018645  0.23540070  0.39018550     1.04800
Cr855      Cr  0.33915746  0.18813683  0.33729850     1.93700
Cr856      Cr  0.37648835  0.12942818  0.37551899     1.93200
Cr857      Cr  0.39253021  0.20682755  0.39276208     1.39100
O858        O  0.36966916  0.17470200  0.36875510    -1.20800
O859        O  0.12555211  0.17953807  0.27225681    -0.83100
O860        O  0.15769382  0.18268690  0.33639384    -0.80100
C861        C  0.13165229  0.18753631  0.35581450     1.00400
O862        O  0.11134974  0.16265744  0.36288215    -0.80200
O863        O  0.07333141  0.10276151  0.35088773    -0.82800
C864        C  0.05215467  0.11022271  0.32680892     1.04900
O865        O  0.06237778  0.11496558  0.29599809    -0.75600
O866        O  0.10501383  0.13524605  0.24237181    -0.75700
C867        C  0.10867791  0.16772620  0.24668445     1.04900
O868        O  0.17397395  0.12730173  0.25060414    -0.83100
O869        O  0.20042216  0.12492777  0.31682011    -0.80100
C870        C  0.20211849  0.11968504  0.34915735     1.00400
O871        O  0.17500186  0.12106467  0.36805756    -0.80200
O872        O  0.13696289  0.06266559  0.35036556    -0.82800
C873        C  0.12101499  0.04189473  0.33049299     1.04900
O874        O  0.10248628  0.05296084  0.30575489    -0.75600
O875        O  0.14942179  0.07605968  0.25627146    -0.75700
C876        C  0.17215345  0.09547201  0.24264104     1.04800
Cr877      Cr  0.16196497  0.15118096  0.29519601     1.93700
Cr878      Cr  0.12465654  0.11286635  0.35461295     1.93200
Cr879      Cr  0.10672325  0.09658547  0.27767088     1.39100
O880        O  0.13107416  0.12005001  0.30925356    -1.20800
O881        O  0.25490827  0.12772450  0.17568798    -0.83100
O882        O  0.32174985  0.12217754  0.19990721    -0.80100
C883        C  0.35426354  0.11849688  0.20068660     1.00400
O884        O  0.37258696  0.12183266  0.17336774    -0.80200
O885        O  0.35499269  0.06447944  0.13416178    -0.82800
C886        C  0.33432069  0.04374785  0.11921003     1.04900
O887        O  0.30848737  0.05475346  0.10206983    -0.75600
O888        O  0.25986578  0.07727757  0.14965614    -0.75700
C889        C  0.24619202  0.09619032  0.17269851     1.04900
O890        O  0.27755604  0.18123719  0.12944005    -0.83100
O891        O  0.34163120  0.18212028  0.16059819    -0.80100
C892        C  0.35905144  0.18906740  0.13363856     1.00400
O893        O  0.36506800  0.16549129  0.11143560    -0.80200
O894        O  0.35326972  0.10594275  0.07189313    -0.82800
C895        C  0.32835709  0.11288275  0.05158866     1.04900
O896        O  0.29797176  0.11753466  0.06285369    -0.75600
O897        O  0.24648925  0.13845302  0.10719235    -0.75700
C898        C  0.25183042  0.17068514  0.11216123     1.04800
Cr899      Cr  0.29999930  0.15098849  0.16394398     1.93700
Cr900      Cr  0.35818212  0.11497084  0.12324570     1.93200
Cr901      Cr  0.28076978  0.09867586  0.10726474     1.39100
O902        O  0.31303302  0.12129205  0.13132459    -1.20800
O903        O  0.19090114  0.27083472  0.12703761    -0.83100
O904        O  0.19033213  0.33428840  0.16053951    -0.80100
C905        C  0.19706708  0.35180720  0.13376972     1.00400
O906        O  0.17341348  0.35823332  0.11197813    -0.80200
O907        O  0.11384920  0.34678298  0.07305355    -0.82800
C908        C  0.12074910  0.32249460  0.05179706     1.04900
O909        O  0.12559867  0.29171890  0.06205178    -0.75600
O910        O  0.14811626  0.23946864  0.10521019    -0.75700
C911        C  0.18031408  0.24475093  0.11014637     1.04900
O912        O  0.13914841  0.24624898  0.17340450    -0.83100
O913        O  0.13192443  0.31203350  0.19988775    -0.80100
C914        C  0.12780596  0.34446918  0.20192898     1.00400
O915        O  0.13038534  0.36368714  0.17513813    -0.80200
O916        O  0.07311342  0.34633605  0.13604345    -0.82800
C917        C  0.05263800  0.32558824  0.12090077     1.04900
O918        O  0.06376900  0.30027424  0.10298761    -0.75600
O919        O  0.08782605  0.25124000  0.14959402    -0.75700
C920        C  0.10754742  0.23796170  0.17216391     1.04800
Cr921      Cr  0.16075152  0.29195634  0.16276685     1.93700
Cr922      Cr  0.12327728  0.35052049  0.12447814     1.93200
Cr923      Cr  0.10794763  0.27314747  0.10672926     1.39100
O924        O  0.13040963  0.30526564  0.13107899    -1.20800
O925        O  0.30856072  0.76509368  0.37147788    -0.83100
O926        O  0.30750596  0.82895931  0.34006286    -0.80100
C927        C  0.30047918  0.84659379  0.36687212     1.00400
O928        O  0.32396019  0.85303993  0.38893838    -0.80200
O929        O  0.38310997  0.84202973  0.42874066    -0.82800
C930        C  0.37564842  0.81746497  0.44940316     1.04900
O931        O  0.37125624  0.78685688  0.43849589    -0.75600
O932        O  0.35118692  0.73460786  0.39447064    -0.75700
C933        C  0.31904515  0.73966305  0.38917425     1.04900
O934        O  0.36252468  0.74266251  0.32554287    -0.83100
O935        O  0.36756534  0.80942811  0.30062418    -0.80100
C936        C  0.37076829  0.84202339  0.29952052     1.00400
O937        O  0.36767685  0.86040541  0.32686470    -0.80200
O938        O  0.42506681  0.84309859  0.36637760    -0.82800
C939        C  0.44569141  0.82259327  0.38164102     1.04900
O940        O  0.43448240  0.79716482  0.39937949    -0.75600
O941        O  0.41255424  0.74779477  0.35215100    -0.75700
C942        C  0.39405069  0.73420714  0.32874173     1.04800
Cr943      Cr  0.33888365  0.78759294  0.33693089     1.93700
Cr944      Cr  0.37447486  0.84633199  0.37721207     1.93200
Cr945      Cr  0.39069916  0.76915513  0.39426185     1.39100
O946        O  0.36828044  0.80105727  0.36958601    -1.20800
O947        O  0.18851554  0.86261110  0.27193521    -0.83100
O948        O  0.19292707  0.82984753  0.33573832    -0.80100
C949        C  0.19862247  0.85581812  0.35500275     1.00400
O950        O  0.17429395  0.87660444  0.36241266    -0.80200
O951        O  0.11478664  0.91544978  0.35215045    -0.82800
C952        C  0.12113632  0.93650932  0.32756668     1.04900
O953        O  0.12436788  0.92608408  0.29661924    -0.75600
O954        O  0.14378055  0.88325426  0.24298733    -0.75700
C955        C  0.17630017  0.87976442  0.24678709     1.04900
O956        O  0.13594189  0.81430524  0.25111354    -0.83100
O957        O  0.13440890  0.78775402  0.31752708    -0.80100
C958        C  0.12989301  0.78611078  0.35001424     1.00400
O959        O  0.13188530  0.81328453  0.36885323    -0.80200
O960        O  0.07372640  0.85232193  0.35343772    -0.82800
C961        C  0.05246249  0.86795897  0.33398004     1.04900
O962        O  0.06275488  0.88563841  0.30821841    -0.75600
O963        O  0.08483433  0.83857377  0.25806834    -0.75700
C964        C  0.10404383  0.81607925  0.24371770     1.04800
Cr965      Cr  0.16051083  0.82612179  0.29531355     1.93700
Cr966      Cr  0.12415225  0.86389613  0.35570835     1.93200
Cr967      Cr  0.10574855  0.88144627  0.27905251     1.39100
O968        O  0.12989839  0.85720121  0.31014131    -1.20800
O969        O  0.27955215  0.79937527  0.12655068    -0.83100
O970        O  0.34275753  0.79973917  0.16011004    -0.80100
C971        C  0.36039753  0.79308504  0.13336868     1.00400
O972        O  0.36662586  0.81681012  0.11148681    -0.80200
O973        O  0.35485637  0.87646073  0.07251220    -0.82800
C974        C  0.33029502  0.87005371  0.05153949     1.04900
O975        O  0.29961082  0.86524858  0.06206798    -0.75600
O976        O  0.24781471  0.84215292  0.10548149    -0.75700
C977        C  0.25330160  0.80990505  0.11007024     1.04900
O978        O  0.25478867  0.85074053  0.17333568    -0.83100
O979        O  0.32060676  0.85790982  0.19974245    -0.80100
C980        C  0.35305369  0.86202204  0.20155048     1.00400
O981        O  0.37210553  0.86006144  0.17450662    -0.80200
O982        O  0.35500675  0.91759326  0.13509039    -0.82800
C983        C  0.33430990  0.93815999  0.12003518     1.04900
O984        O  0.30843849  0.92700578  0.10302111    -0.75600
O985        O  0.25980023  0.90236200  0.15001817    -0.75700
C986        C  0.24643470  0.88234121  0.17233609     1.04800
Cr987      Cr  0.30050322  0.82933858  0.16245332     1.93700
Cr988      Cr  0.35888723  0.86714186  0.12387908     1.93200
Cr989      Cr  0.28142931  0.88255894  0.10692742     1.39100
O990        O  0.31370046  0.86000127  0.13087501    -1.20800
O991        O  0.13647163  0.73416186  0.17650124    -0.83100
O992        O  0.13170030  0.66738641  0.20142207    -0.80100
C993        C  0.12834097  0.63480443  0.20252398     1.00400
O994        O  0.13180334  0.61635345  0.17529411    -0.80200
O995        O  0.07449365  0.63338773  0.13588632    -0.82800
C996        C  0.05393218  0.65360845  0.12023582     1.04900
O997        O  0.06506142  0.67909845  0.10256485    -0.75600
O998        O  0.08649142  0.72886685  0.14979621    -0.75700
C999        C  0.10497079  0.74268161  0.17311276     1.04900
O1000       O  0.19061495  0.71204330  0.13056294    -0.83100
O1001       O  0.19186071  0.64802630  0.16193012    -0.80100
C1002       C  0.19884650  0.63042085  0.13507823     1.00400
O1003       O  0.17533256  0.62380926  0.11313740    -0.80200
O1004       O  0.11615181  0.63452942  0.07356187    -0.82800
C1005       C  0.12372497  0.65905228  0.05291800     1.04900
O1006       O  0.12824304  0.68964878  0.06378266    -0.75600
O1007       O  0.14779546  0.74225592  0.10760487    -0.75700
C1008       C  0.17996951  0.73745906  0.11290632     1.04800
Cr1009     Cr  0.16035547  0.68931822  0.16513790     1.93700
Cr1010     Cr  0.12494390  0.63033953  0.12500581     1.93200
Cr1011     Cr  0.10854510  0.70742945  0.10780249     1.39100
O1012       O  0.13101557  0.67567313  0.13255327    -1.20800
O1013       O  0.36334064  0.66440606  0.24913275    -0.83100
O1014       O  0.36484073  0.69099364  0.18277652    -0.80100
C1015       C  0.36922750  0.69273130  0.15028704     1.00400
O1016       O  0.36700188  0.66565565  0.13138446    -0.80200
O1017       O  0.42548595  0.62741430  0.14697590    -0.82800
C1018       C  0.44685702  0.61189335  0.16639855     1.04900
O1019       O  0.43662649  0.59355825  0.19176036    -0.75600
O1020       O  0.41434088  0.63980991  0.24239292    -0.75700
C1021       C  0.39515476  0.66227647  0.25678639     1.04900
O1022       O  0.31066181  0.61620879  0.22850122    -0.83100
O1023       O  0.30639922  0.64865261  0.16452688    -0.80100
C1024       C  0.30081658  0.62248850  0.14547598     1.00400
O1025       O  0.32529873  0.60197112  0.13783937    -0.80200
O1026       O  0.38519466  0.56372914  0.14765873    -0.82800
C1027       C  0.37838810  0.54249565  0.17195268     1.04900
O1028       O  0.37492186  0.55269438  0.20294820    -0.75600
O1029       O  0.35537508  0.59500661  0.25708501    -0.75700
C1030       C  0.32284260  0.59891824  0.25358526     1.04800
Cr1031     Cr  0.33873722  0.65261227  0.20497602     1.93700
Cr1032     Cr  0.37526165  0.61518246  0.14445989     1.93200
Cr1033     Cr  0.39350588  0.59717488  0.22098072     1.39100
O1034       O  0.36937576  0.62160891  0.19006597    -1.20800
O1035       O  0.24379966  0.62753771  0.32754087    -0.83100
O1036       O  0.17764644  0.61977184  0.30182486    -0.80100
C1037       C  0.14518138  0.61558990  0.30034149     1.00400
O1038       O  0.12627421  0.61799893  0.32746438    -0.80200
O1039       O  0.14277517  0.56090313  0.36750018    -0.82800
C1040       C  0.16386405  0.54008544  0.38163594     1.04900
O1041       O  0.19046923  0.55086331  0.39771355    -0.75600
O1042       O  0.23894787  0.57581731  0.35051746    -0.75700
C1043       C  0.25235154  0.59601130  0.32833714     1.04900
O1044       O  0.21919618  0.67866220  0.37440377    -0.83100
O1045       O  0.15581204  0.67833938  0.34080246    -0.80100
C1046       C  0.13857345  0.68555667  0.36763230     1.00400
O1047       O  0.13256348  0.66218298  0.38994938    -0.80200
O1048       O  0.14404698  0.60290549  0.42959719    -0.82800
C1049       C  0.16904631  0.60848875  0.45028976     1.04900
O1050       O  0.19977651  0.61213450  0.43938548    -0.75600
O1051       O  0.25081728  0.63573845  0.39554209    -0.75700
C1052       C  0.24529690  0.66799270  0.39108300     1.04800
Cr1053     Cr  0.19801670  0.64864417  0.33868837     1.93700
Cr1054     Cr  0.13973233  0.61155736  0.37811152     1.93200
Cr1055     Cr  0.21741690  0.59529259  0.39400409     1.39100
O1056       O  0.18495519  0.61813081  0.37052643    -1.20800
C1057       C  0.29955937  0.58699493  0.28050529    -0.11000
C1058       C  0.27835750  0.58505484  0.30371950    -0.12600
C1059       C  0.23438150  0.61915239  0.13035898    -0.11000
C1060       C  0.26567858  0.61693545  0.13342564    -0.12600
C1061       C  0.12508803  0.61897579  0.23609344    -0.11000
C1062       C  0.12999189  0.61307136  0.26645494    -0.12600
C1063       C  0.20470394  0.76317611  0.10227999    -0.11000
C1064       C  0.22704497  0.78509436  0.10117257    -0.12600
C1065       C  0.37195435  0.75766117  0.12919419    -0.11000
C1066       C  0.37381723  0.72673193  0.13494865    -0.12600
C1067       C  0.09128198  0.79235903  0.21757896    -0.11000
C1068       C  0.09175859  0.76961125  0.19574127    -0.12600
C1069       C  0.12541468  0.75208670  0.36544561    -0.11000
C1070       C  0.12727671  0.72116507  0.37140302    -0.12600
C1071       C  0.19952976  0.89186819  0.22005970    -0.11000
C1072       C  0.22065570  0.89365830  0.19685916    -0.12600
C1073       C  0.36807948  0.86402843  0.23559329    -0.11000
C1074       C  0.37332795  0.85792800  0.26588625    -0.12600
C1075       C  0.40785263  0.68547232  0.28337200    -0.11000
C1076       C  0.40732297  0.70772496  0.30568080    -0.12600
C1077       C  0.23370813  0.86080064  0.36761934    -0.11000
C1078       C  0.26494750  0.85818090  0.37124832    -0.12600
C1079       C  0.29409226  0.71421991  0.39974813    -0.11000
C1080       C  0.27146408  0.69263032  0.40047162    -0.12600
C1081       C  0.33975855  0.97522510  0.12174232    -0.11000
C1082       C  0.33972946  0.00671453  0.12136499    -0.12600
C1083       C  0.20490174  0.21839141  0.10099450    -0.11000
C1084       C  0.22641164  0.19569604  0.10175349    -0.12600
C1085       C  0.12319814  0.97334764  0.33433382    -0.11000
C1086       C  0.12336722  0.00482087  0.33542446    -0.12600
C1087       C  0.19614666  0.08294757  0.21674196    -0.11000
C1088       C  0.21912613  0.08339069  0.19523697    -0.12600
C1089       C  0.09587527  0.21238706  0.19677253    -0.11000
C1090       C  0.09720018  0.19131910  0.22003061    -0.12600
C1091       C  0.23609692  0.11499528  0.36440293    -0.11000
C1092       C  0.26701119  0.11681668  0.37015373    -0.12600
C1093       C  0.37548258  0.12030463  0.26444769    -0.11000
C1094       C  0.37015633  0.11519386  0.23405885    -0.12600
C1095       C  0.37593532  0.50574381  0.16482607    -0.11000
C1096       C  0.37523266  0.47427155  0.16380609    -0.12600
C1097       C  0.37073809  0.22465024  0.12920469    -0.11000
C1098       C  0.37317421  0.25598654  0.13280354    -0.12600
C1099       C  0.26334719  0.36431093  0.13517499    -0.11000
C1100       C  0.23248040  0.36296547  0.12939376    -0.12600
C1101       C  0.40217180  0.28877837  0.28024804    -0.11000
C1102       C  0.40411202  0.26753754  0.30321643    -0.12600
C1103       C  0.15811542  0.47157940  0.38005282    -0.11000
C1104       C  0.15810864  0.50307061  0.37981274    -0.12600
C1105       C  0.12492612  0.35917258  0.23605814    -0.11000
C1106       C  0.13028677  0.36340820  0.26662929    -0.12600
C1107       C  0.12601357  0.22238717  0.36890665    -0.11000
C1108       C  0.12839558  0.25367366  0.37254725    -0.12600
C1109       C  0.27355390  0.28374316  0.40027769    -0.11000
C1110       C  0.29557173  0.26149330  0.40018212    -0.12600
C1111       C  0.30142565  0.39572581  0.28440947    -0.11000
C1112       C  0.27911902  0.39539307  0.30663788    -0.12600
C1113       C  0.51517230  0.61497282  0.15957128    -0.11000
C1114       C  0.48370991  0.61462070  0.16008873    -0.12600
C1115       C  0.70492125  0.59315653  0.27150254    -0.11000
C1116       C  0.72804439  0.59241931  0.29257809    -0.12600
C1117       C  0.48282811  0.82758237  0.37905396    -0.11000
C1118       C  0.51433458  0.82714023  0.37828528    -0.12600
C1119       C  0.59324572  0.70763045  0.30381961    -0.11000
C1120       C  0.59349507  0.68643611  0.28051968    -0.12600
C1121       C  0.70229760  0.71131022  0.40046480    -0.11000
C1122       C  0.72396255  0.68860488  0.40017335    -0.12600
C1123       C  0.63284293  0.75923424  0.12448365    -0.11000
C1124       C  0.62759416  0.72850523  0.12891961    -0.12600
C1125       C  0.62980303  0.85554006  0.26452780    -0.11000
C1126       C  0.63674850  0.86120401  0.23445892    -0.12600
C1127       C  0.01696430  0.64825557  0.12226951    -0.11000
C1128       C  0.98554531  0.64897635  0.12273034    -0.12600
C1129       C  0.78322544  0.78868997  0.09858038    -0.11000
C1130       C  0.80570797  0.76682107  0.09856931    -0.12600
C1131       C  0.73244769  0.61767563  0.12854807    -0.11000
C1132       C  0.76377477  0.62025800  0.12627481    -0.12600
C1133       C  0.87627079  0.61461475  0.23361525    -0.11000
C1134       C  0.87496018  0.61351843  0.26512589    -0.12600
C1135       C  0.01561136  0.86603210  0.34050695    -0.11000
C1136       C  0.98415090  0.86616241  0.34034212    -0.12600
C1137       C  0.89966571  0.76058270  0.20748334    -0.11000
C1138       C  0.89886853  0.78335742  0.22912011    -0.12600
C1139       C  0.80712114  0.89600474  0.22010962    -0.11000
C1140       C  0.78586435  0.89643849  0.19701041    -0.12600
C1141       C  0.76240840  0.86395439  0.37028277    -0.11000
C1142       C  0.73140346  0.85991452  0.37423138    -0.12600
C1143       C  0.87325189  0.75766207  0.37228005    -0.11000
C1144       C  0.87060418  0.72638693  0.37381435    -0.12600
C1145       C  0.51611115  0.14934172  0.37625447    -0.11000
C1146       C  0.48465350  0.14871168  0.37635947    -0.12600
C1147       C  0.62085123  0.47584084  0.16212032    -0.11000
C1148       C  0.62123490  0.50731902  0.16213220    -0.12600
C1149       C  0.51420462  0.36865395  0.16909879    -0.11000
C1150       C  0.48286452  0.36853969  0.16919981    -0.12600
C1151       C  0.59811894  0.28945534  0.27995293    -0.11000
C1152       C  0.59748919  0.26836629  0.30319347    -0.12600
C1153       C  0.66712459  0.97544291  0.12379186    -0.11000
C1154       C  0.66766803  0.00686109  0.12361123    -0.12600
C1155       C  0.63050386  0.12237074  0.26565442    -0.11000
C1156       C  0.63416298  0.11804241  0.23468325    -0.12600
C1157       C  0.63633056  0.22750187  0.12903003    -0.11000
C1158       C  0.62990790  0.25817683  0.13222295    -0.12600
C1159       C  0.98409255  0.11227216  0.33521773    -0.11000
C1160       C  0.01547855  0.11183755  0.33394294    -0.12600
C1161       C  0.87764050  0.00531909  0.34189566    -0.11000
C1162       C  0.87768205  0.97389508  0.34136988    -0.12600
C1163       C  0.80163693  0.08362124  0.22377725    -0.11000
C1164       C  0.77942391  0.08570951  0.20183493    -0.12600
C1165       C  0.76375974  0.11341947  0.37389231    -0.11000
C1166       C  0.73283217  0.11724046  0.37817643    -0.12600
C1167       C  0.83693205  0.47457796  0.37883875    -0.11000
C1168       C  0.83751389  0.50594549  0.37782977    -0.12600
C1169       C  0.72218486  0.39641292  0.30087910    -0.11000
C1170       C  0.69808875  0.39794620  0.28083247    -0.12600
C1171       C  0.86633879  0.25427005  0.37145401    -0.11000
C1172       C  0.87089746  0.22311672  0.37085152    -0.12600
C1173       C  0.70223038  0.26723340  0.40434747    -0.11000
C1174       C  0.72281763  0.29102142  0.40449264    -0.12600
C1175       C  0.98439293  0.32888364  0.12446705    -0.11000
C1176       C  0.01572936  0.33015366  0.12375380    -0.12600
C1177       C  0.78434893  0.18769305  0.09421444    -0.11000
C1178       C  0.80583857  0.21066172  0.09472737    -0.12600
C1179       C  0.89655754  0.21635872  0.20627755    -0.11000
C1180       C  0.89561128  0.19420702  0.22841683    -0.12600
C1181       C  0.87316798  0.36431735  0.23409105    -0.11000
C1182       C  0.87049562  0.36706793  0.26537300    -0.12600
C1183       C  0.73415996  0.36606674  0.13558249    -0.11000
C1184       C  0.76449622  0.36104100  0.12957171    -0.12600
C1185       C  0.62240901  0.82652271  0.51595499    -0.11000
C1186       C  0.62211195  0.82506496  0.48460909    -0.12600
C1187       C  0.59685113  0.68923636  0.72379070    -0.11000
C1188       C  0.59744466  0.71211206  0.70249290    -0.12600
C1189       C  0.83819550  0.61251044  0.51413560    -0.11000
C1190       C  0.83954264  0.61327838  0.48264770    -0.12600
C1191       C  0.72475961  0.69093860  0.59515872    -0.11000
C1192       C  0.70032650  0.71063985  0.59437887    -0.12600
C1193       C  0.72334136  0.58725481  0.69848878    -0.11000
C1194       C  0.70266682  0.58825755  0.72225716    -0.12600
C1195       C  0.67150430  0.87033261  0.01509551    -0.11000
C1196       C  0.67111884  0.87010974  0.98375210    -0.12600
C1197       C  0.63659469  0.86305823  0.76360780    -0.11000
C1198       C  0.63007275  0.85935227  0.73302087    -0.12600
C1199       C  0.63562624  0.75783157  0.87325682    -0.11000
C1200       C  0.63219881  0.72683375  0.86893821    -0.12600
C1201       C  0.87834567  0.64918094  0.01630738    -0.11000
C1202       C  0.87845698  0.64921803  0.98476829    -0.12600
C1203       C  0.86794781  0.61682290  0.73549840    -0.11000
C1204       C  0.87223049  0.61767927  0.76672524    -0.12600
C1205       C  0.76491715  0.61679181  0.87680093    -0.11000
C1206       C  0.73396333  0.61313201  0.87300256    -0.12600
C1207       C  0.80310493  0.76708733  0.90435350    -0.11000
C1208       C  0.78104627  0.78925991  0.90272295    -0.12600
C1209       C  0.87167087  0.72491779  0.62354183    -0.11000
C1210       C  0.87360264  0.75636472  0.62582944    -0.12600
C1211       C  0.89671374  0.78357399  0.77198789    -0.11000
C1212       C  0.89615382  0.76114907  0.79392157    -0.12600
C1213       C  0.76474019  0.86152465  0.62850484    -0.11000
C1214       C  0.73442001  0.85505404  0.62428217    -0.12600
C1215       C  0.80670814  0.89649663  0.77870099    -0.11000
C1216       C  0.78538877  0.89731820  0.80181773    -0.12600
C1217       C  0.16293885  0.60935524  0.48728728    -0.11000
C1218       C  0.16194440  0.60881078  0.51874743    -0.12600
C1219       C  0.51501074  0.82089765  0.62251874    -0.11000
C1220       C  0.48367841  0.82080365  0.62274981    -0.12600
C1221       C  0.37395295  0.82372514  0.48629563    -0.11000
C1222       C  0.37440041  0.82435001  0.51774128    -0.12600
C1223       C  0.30308342  0.70474870  0.59511694    -0.11000
C1224       C  0.28010465  0.68329709  0.59518036    -0.12600
C1225       C  0.48585888  0.61320499  0.84320839    -0.11000
C1226       C  0.51733574  0.61435815  0.84221370    -0.12600
C1227       C  0.29550297  0.59352455  0.73136074    -0.11000
C1228       C  0.27340415  0.59391296  0.70914740    -0.12600
C1229       C  0.40430410  0.70847749  0.70302176    -0.11000
C1230       C  0.40625874  0.68592648  0.72472760    -0.12600
C1231       C  0.98457768  0.86600884  0.65981413    -0.11000
C1232       C  0.01590820  0.86647093  0.65882509    -0.12600
C1233       C  0.12824328  0.72271752  0.62468139    -0.11000
C1234       C  0.12282384  0.75320401  0.62932018    -0.12600
C1235       C  0.23285080  0.85775115  0.62846828    -0.11000
C1236       C  0.26375711  0.85203644  0.62743930    -0.12600
C1237       C  0.12504175  0.65246004  0.98469936    -0.11000
C1238       C  0.12538911  0.65280426  0.01610485    -0.12600
C1239       C  0.98503752  0.65415896  0.87774133    -0.11000
C1240       C  0.01639223  0.65533815  0.87846905    -0.12600
C1241       C  0.12837184  0.61853780  0.73593327    -0.11000
C1242       C  0.12643671  0.62220396  0.76722627    -0.12600
C1243       C  0.23691557  0.62638329  0.87521683    -0.11000
C1244       C  0.26789619  0.62072419  0.87441385    -0.12600
C1245       C  0.09591591  0.76971305  0.79996359    -0.11000
C1246       C  0.09437512  0.79235302  0.77829563    -0.12600
C1247       C  0.33770955  0.87076237  0.98333595    -0.11000
C1248       C  0.33674072  0.86980956  0.01471451    -0.12600
C1249       C  0.19595947  0.77404290  0.90765931    -0.11000
C1250       C  0.21875365  0.79578687  0.90746474    -0.12600
C1251       C  0.22684991  0.88576681  0.79341429    -0.11000
C1252       C  0.20492376  0.88601072  0.77117251    -0.12600
C1253       C  0.37100194  0.75610776  0.87829352    -0.11000
C1254       C  0.37695305  0.72565344  0.87378519    -0.12600
C1255       C  0.37140640  0.85936165  0.76660774    -0.11000
C1256       C  0.37377134  0.85567014  0.73534946    -0.12600
C1257       C  0.37839259  0.15131018  0.48431543    -0.11000
C1258       C  0.37889413  0.15047255  0.51561784    -0.12600
C1259       C  0.16538870  0.47224667  0.62546118    -0.11000
C1260       C  0.16497257  0.50357556  0.62663654    -0.12600
C1261       C  0.16163501  0.36397521  0.51784716    -0.11000
C1262       C  0.16225335  0.36357403  0.48649928    -0.12600
C1263       C  0.30429107  0.27073631  0.59150597    -0.11000
C1264       C  0.28220405  0.29311943  0.59233465    -0.12600
C1265       C  0.37762265  0.50483631  0.84103512    -0.11000
C1266       C  0.37778048  0.47338269  0.84175157    -0.12600
C1267       C  0.30132365  0.39292661  0.72401064    -0.11000
C1268       C  0.27881592  0.39148700  0.70226577    -0.12600
C1269       C  0.39591600  0.28440965  0.72776588    -0.11000
C1270       C  0.39545687  0.26300902  0.70490822    -0.12600
C1271       C  0.12096048  0.33101120  0.98356061    -0.11000
C1272       C  0.12156205  0.32942191  0.01498211    -0.12600
C1273       C  0.23464809  0.36262346  0.87735527    -0.11000
C1274       C  0.26546669  0.36643698  0.87309330    -0.12600
C1275       C  0.12842400  0.36339979  0.76601150    -0.11000
C1276       C  0.13187404  0.36398664  0.73468083    -0.12600
C1277       C  0.33384585  0.11377573  0.01470315    -0.11000
C1278       C  0.33304852  0.11333000  0.98334867    -0.12600
C1279       C  0.33458802  0.97586001  0.87365765    -0.11000
C1280       C  0.33500565  0.00729930  0.87406754    -0.12600
C1281       C  0.19634779  0.21457814  0.90440273    -0.11000
C1282       C  0.21905862  0.19297540  0.90356882    -0.12600
C1283       C  0.36808003  0.22429268  0.87467623    -0.11000
C1284       C  0.37211317  0.25555972  0.87326566    -0.12600
C1285       C  0.36238308  0.11828599  0.76290454    -0.11000
C1286       C  0.36768961  0.12007507  0.73194625    -0.12600
C1287       C  0.12137041  0.00483634  0.66195656    -0.11000
C1288       C  0.12224769  0.97345317  0.66264768    -0.12600
C1289       C  0.13414124  0.25224598  0.62721877    -0.11000
C1290       C  0.12909497  0.22122285  0.62880407    -0.12600
C1291       C  0.26450563  0.11900242  0.62294439    -0.11000
C1292       C  0.23440170  0.11298534  0.62903425    -0.12600
C1293       C  0.10342464  0.21930636  0.79340158    -0.11000
C1294       C  0.10324809  0.19640831  0.77195814    -0.12600
C1295       C  0.21520376  0.08461697  0.80413648    -0.11000
C1296       C  0.19348290  0.08376352  0.78145309    -0.12600
C1297       C  0.51530816  0.15300966  0.62434770    -0.11000
C1298       C  0.48395573  0.15423312  0.62448503    -0.12600
C1299       C  0.62157515  0.15347652  0.51746279    -0.11000
C1300       C  0.62077496  0.15379883  0.48608079    -0.12600
C1301       C  0.84417253  0.47401691  0.62304424    -0.11000
C1302       C  0.84357250  0.50562044  0.62342631    -0.12600
C1303       C  0.84262879  0.36486263  0.51503939    -0.11000
C1304       C  0.84279190  0.36470222  0.48354574    -0.12600
C1305       C  0.72692481  0.28695048  0.60080874    -0.11000
C1306       C  0.70391653  0.26564716  0.60192575    -0.12600
C1307       C  0.62176789  0.50698135  0.83518179    -0.11000
C1308       C  0.62143288  0.47575457  0.83344269    -0.12600
C1309       C  0.48480913  0.36611980  0.83492199    -0.11000
C1310       C  0.51617952  0.36674353  0.83439206    -0.12600
C1311       C  0.59034937  0.27430693  0.69271150    -0.11000
C1312       C  0.59030442  0.29812375  0.71319402    -0.12600
C1313       C  0.72220013  0.39712246  0.69242084    -0.11000
C1314       C  0.69974970  0.39723842  0.71441831    -0.12600
C1315       C  0.01507650  0.11267304  0.66269929    -0.11000
C1316       C  0.98375704  0.11253294  0.66213992    -0.12600
C1317       C  0.87749194  0.97372214  0.65941117    -0.11000
C1318       C  0.87703471  0.00526174  0.65976888    -0.12600
C1319       C  0.73149074  0.12044746  0.63104278    -0.11000
C1320       C  0.76250892  0.11696527  0.63481735    -0.12600
C1321       C  0.87371189  0.22350964  0.62999069    -0.11000
C1322       C  0.87224641  0.25499335  0.62777182    -0.12600
C1323       C  0.66280938  0.11562853  0.98573534    -0.11000
C1324       C  0.66271701  0.11579840  0.01717415    -0.12600
C1325       C  0.66612213  0.00620414  0.87825519    -0.11000
C1326       C  0.66496898  0.97488137  0.87698833    -0.12600
C1327       C  0.62727172  0.12354397  0.73885503    -0.11000
C1328       C  0.63339951  0.11813256  0.76920341    -0.12600
C1329       C  0.63352034  0.25592937  0.85786650    -0.11000
C1330       C  0.64030760  0.22637497  0.86576104    -0.12600
C1331       C  0.80618702  0.08392376  0.78120882    -0.11000
C1332       C  0.78390753  0.08431533  0.80329329    -0.12600
C1333       C  0.87708561  0.33053912  0.01747875    -0.11000
C1334       C  0.87663970  0.33057578  0.98600629    -0.12600
C1335       C  0.01450039  0.32797965  0.87640909    -0.11000
C1336       C  0.98311400  0.32755800  0.87732650    -0.12600
C1337       C  0.80596784  0.20848771  0.91070614    -0.11000
C1338       C  0.78499572  0.18506254  0.91101614    -0.12600
C1339       C  0.89910301  0.21461537  0.79872403    -0.11000
C1340       C  0.89997302  0.19292315  0.77607878    -0.12600
C1341       C  0.87183816  0.35984420  0.76862033    -0.11000
C1342       C  0.86868027  0.36308680  0.73745752    -0.12600
C1343       C  0.76224839  0.35874470  0.87162087    -0.11000
C1344       C  0.73196528  0.36416815  0.86520496    -0.12600
loop_ 
_geom_bond_atom_site_label_1 
_geom_bond_atom_site_label_2 
_geom_bond_distance 
_geom_bond_site_symmetry_2 
_ccdc_geom_bond_type 
O1          Cr19   1.999       .  S
O1            C9   1.262       .  A
O2          Cr19   1.965       .  S
O2            C3   1.257       .  A
C3            O4   1.269       .  A
C3         C1343   1.437       .  S
O4          Cr20   2.030       .  S
O5          Cr20   1.988       .  S
O5            C6   1.262       .  A
C6            O7   1.265       .  A
C6         C1334   1.439       .  S
O7          Cr21   2.004       .  S
O8          Cr21   1.988       .  S
O8            C9   1.258       .  A
C9         C1337   1.436       .  S
O10         Cr19   1.967       .  S
O10          C18   1.256       .  A
O11         Cr19   1.996       .  S
O11          C12   1.260       .  A
C12          O13   1.261       .  A
C12        C1341   1.440       .  S
O13         Cr20   1.999       .  S
O14         Cr20   2.016       .  S
O14          C15   1.266       .  A
C15          O16   1.257       .  A
C15        C1336   1.434       .  S
O16         Cr21   1.968       .  S
O17         Cr21   2.015       .  S
O17          C18   1.265       .  A
C18        C1339   1.430       .  S
Cr19         O22   1.763       .  S
Cr20         O22   1.777       .  S
Cr21         O22   1.773       .  S
O23         Cr41   1.970       .  S
O23          C31   1.257       .  A
O24         Cr41   1.992       .  S
O24          C25   1.259       .  A
C25          O26   1.260       .  A
C25        C1328   1.437       .  S
O26         Cr42   1.995       .  S
O27         Cr42   2.010       .  S
O27          C28   1.265       .  A
C28          O29   1.258       .  A
C28        C1325   1.431       .  S
O29         Cr43   1.968       .  S
O30         Cr43   2.015       .  S
O30          C31   1.265       .  A
C31        C1332   1.431       .  S
O32         Cr41   1.994       .  S
O32          C40   1.261       .  A
O33         Cr41   1.965       .  S
O33          C34   1.257       .  A
C34          O35   1.267       .  A
C34        C1330   1.430       .  S
O35         Cr42   2.018       .  S
O36         Cr42   1.986       .  S
O36          C37   1.260       .  A
C37          O38   1.263       .  A
C37        C1323   1.436       .  S
O38         Cr43   2.000       .  S
O39         Cr43   1.993       .  S
O39          C40   1.260       .  A
C40        C1338   1.435       .  S
Cr41         O44   1.762       .  S
Cr42         O44   1.778       .  S
Cr43         O44   1.774       .  S
O45         Cr63   1.968       .  S
O45          C53   1.257       .  A
O46         Cr63   1.996       .  S
O46          C47   1.259       .  A
C47          O48   1.261       .  A
C47        C1321   1.445       .  S
O48         Cr64   2.005       .  S
O49         Cr64   2.014       .  S
O49          C50   1.266       .  A
C50          O51   1.256       .  A
C50        C1316   1.429       .  S
O51         Cr65   1.961       .  S
O52         Cr65   2.017       .  S
O52          C53   1.266       .  A
C53        C1340   1.430       .  S
O54         Cr63   1.992       .  S
O54          C62   1.260       .  A
O55         Cr63   1.961       .  S
O55          C56   1.257       .  A
C56          O57   1.271       .  A
C56        C1320   1.437       .  S
O57         Cr64   2.032       .  S
O58         Cr64   1.991       .  S
O58          C59   1.262       .  A
C59          O60   1.264       .  A
C59        C1318   1.442       .  S
O60         Cr65   2.005       .  S
O61         Cr65   1.986       .  S
O61          C62   1.258       .  A
C62        C1331   1.429       .  S
Cr63         O66   1.763       .  S
Cr64         O66   1.776       .  S
Cr65         O66   1.773       .  S
O67         Cr85   1.971       .  S
O67          C75   1.257       .  A
O68         Cr85   1.993       .  S
O68          C69   1.260       .  A
C69          O70   1.261       .  A
C69        C1344   1.437       .  S
O70         Cr86   1.994       .  S
O71         Cr86   2.003       .  S
O71          C72   1.263       .  A
C72          O73   1.258       .  A
C72        C1308   1.425       .  S
O73         Cr87   1.966       .  S
O74         Cr87   2.019       .  S
O74          C75   1.266       .  A
C75        C1314   1.435       .  S
O76         Cr85   1.994       .  S
O76          C84   1.261       .  A
O77         Cr85   1.969       .  S
O77          C78   1.258       .  A
C78          O79   1.265       .  A
C78        C1329   1.430       .  S
O79         Cr86   2.013       .  S
O80         Cr86   1.981       .  S
O80          C81   1.260       .  A
C81          O82   1.264       .  A
C81        C1310   1.433       .  S
O82         Cr87   2.002       .  S
O83         Cr87   1.989       .  S
O83          C84   1.259       .  A
C84        C1312   1.432       .  S
Cr85         O88   1.761       .  S
Cr86         O88   1.777       .  S
Cr87         O88   1.774       .  S
O89        Cr107   1.968       .  S
O89          C97   1.258       .  A
O90        Cr107   1.995       .  S
O90          C91   1.259       .  A
C91          O92   1.262       .  A
C91        C1322   1.445       .  S
O92        Cr108   2.007       .  S
O93        Cr108   2.022       .  S
O93          C94   1.268       .  A
C94          O95   1.258       .  A
C94        C1303   1.440       .  S
O95        Cr109   1.970       .  S
O96        Cr109   2.018       .  S
O96          C97   1.267       .  A
C97        C1305   1.431       .  S
O98        Cr107   1.992       .  S
O98         C106   1.259       .  A
O99        Cr107   1.961       .  S
O99         C100   1.256       .  A
C100        O101   1.272       .  A
C100       C1342   1.440       .  S
O101       Cr108   2.037       .  S
O102       Cr108   1.995       .  S
O102        C103   1.263       .  A
C103        O104   1.265       .  A
C103       C1301   1.446       .  S
O104       Cr109   2.007       .  S
O105       Cr109   1.991       .  S
O105        C106   1.259       .  A
C106       C1313   1.433       .  S
Cr107       O110   1.766       .  S
Cr108       O110   1.777       .  S
Cr109       O110   1.774       .  S
O111       Cr129   1.997       .  S
O111        C119   1.261       .  A
O112       Cr129   1.966       .  S
O112        C113   1.257       .  A
C113        O114   1.269       .  A
C113       C1327   1.437       .  S
O114       Cr130   2.029       .  S
O115       Cr130   1.982       .  S
O115        C116   1.261       .  A
C116        O117   1.264       .  A
C116       C1297   1.433       .  S
O117       Cr131   2.001       .  S
O118       Cr131   1.985       .  S
O118        C119   1.257       .  A
C119       C1311   1.433       .  S
O120       Cr129   1.967       .  S
O120        C128   1.257       .  A
O121       Cr129   1.996       .  S
O121        C122   1.261       .  A
C122        O123   1.261       .  A
C122       C1319   1.437       .  S
O123       Cr130   1.996       .  S
O124       Cr130   2.017       .  S
O124        C125   1.266       .  A
C125        O126   1.256       .  A
C125       C1299   1.433       .  S
O126       Cr131   1.965       .  S
O127       Cr131   2.016       .  S
O127        C128   1.266       .  A
C128       C1306   1.431       .  S
Cr129       O132   1.762       .  S
Cr130       O132   1.777       .  S
Cr131       O132   1.772       .  S
O133       Cr151   1.990       .  S
O133        C141   1.258       .  A
O134       Cr151   1.962       .  S
O134        C135   1.257       .  A
C135        O136   1.267       .  A
C135       C1292   1.427       .  S
O136       Cr152   2.018       .  S
O137       Cr152   1.979       .  S
O137        C138   1.261       .  A
C138        O139   1.266       .  A
C138       C1287   1.433       .  S
O139       Cr153   2.004       .  S
O140       Cr153   1.996       .  S
O140        C141   1.259       .  A
C141       C1296   1.437       .  S
O142       Cr151   1.964       .  S
O142        C150   1.257       .  A
O143       Cr151   1.990       .  S
O143        C144   1.258       .  A
C144        O145   1.261       .  A
C144       C1290   1.436       .  S
O145       Cr152   2.001       .  S
O146       Cr152   2.003       .  S
O146        C147   1.262       .  A
C147        O148   1.257       .  A
C147       C1315   1.430       .  S
O148       Cr153   1.972       .  S
O149       Cr153   2.019       .  S
O149        C150   1.268       .  A
C150       C1294   1.430       .  S
Cr151       O154   1.761       .  S
Cr152       O154   1.778       .  S
Cr153       O154   1.770       .  S
O155       Cr173   1.975       .  S
O155        C163   1.259       .  A
O156       Cr173   2.001       .  S
O156        C157   1.261       .  A
C157        O158   1.260       .  A
C157       C1283   1.444       .  S
O158       Cr174   1.997       .  S
O159       Cr174   2.012       .  S
O159        C160   1.266       .  A
C160        O161   1.257       .  A
C160       C1278   1.432       .  S
O161       Cr175   1.967       .  S
O162       Cr175   2.012       .  S
O162        C163   1.264       .  A
C163       C1282   1.433       .  S
O164       Cr173   2.002       .  S
O164        C172   1.263       .  A
O165       Cr173   1.968       .  S
O165        C166   1.258       .  A
C166        O167   1.268       .  A
C166       C1285   1.438       .  S
O167       Cr174   2.024       .  S
O168       Cr174   1.985       .  S
O168        C169   1.260       .  A
C169        O170   1.263       .  A
C169       C1280   1.435       .  S
O170       Cr175   2.000       .  S
O171       Cr175   1.990       .  S
O171        C172   1.259       .  A
C172       C1295   1.438       .  S
Cr173       O176   1.765       .  S
Cr174       O176   1.779       .  S
Cr175       O176   1.775       .  S
O177       Cr195   1.970       .  S
O177        C185   1.259       .  A
O178       Cr195   1.989       .  S
O178        C179   1.257       .  A
C179        O180   1.262       .  A
C179       C1275   1.440       .  S
O180       Cr196   2.007       .  S
O181       Cr196   2.013       .  S
O181        C182   1.265       .  A
C182        O183   1.258       .  A
C182       C1335   1.434       .  S
O183       Cr197   1.969       .  S
O184       Cr197   2.015       .  S
O184        C185   1.267       .  A
C185       C1293   1.430       .  S
O186       Cr195   1.985       .  S
O186        C194   1.257       .  A
O187       Cr195   1.958       .  S
O187        C188   1.256       .  A
C188        O189   1.270       .  A
C188       C1273   1.430       .  S
O189       Cr196   2.028       .  S
O190       Cr196   1.988       .  S
O190        C191   1.262       .  A
C191        O192   1.264       .  A
C191       C1271   1.438       .  S
O192       Cr197   2.000       .  S
O193       Cr197   1.993       .  S
O193        C194   1.259       .  A
C194       C1281   1.430       .  S
Cr195       O198   1.764       .  S
Cr196       O198   1.776       .  S
Cr197       O198   1.770       .  S
O199       Cr217   1.968       .  S
O199        C207   1.259       .  A
O200       Cr217   1.989       .  S
O200        C201   1.256       .  A
C201        O202   1.261       .  A
C201       C1284   1.442       .  S
O202       Cr218   2.008       .  S
O203       Cr218   2.011       .  S
O203        C204   1.265       .  A
C204        O205   1.257       .  A
C204       C1309   1.433       .  S
O205       Cr219   1.968       .  S
O206       Cr219   2.013       .  S
O206        C207   1.267       .  A
C207       C1269   1.427       .  S
O208       Cr217   1.985       .  S
O208        C216   1.256       .  A
O209       Cr217   1.957       .  S
O209        C210   1.257       .  A
C210        O211   1.270       .  A
C210       C1274   1.430       .  S
O211       Cr218   2.027       .  S
O212       Cr218   1.987       .  S
O212        C213   1.261       .  A
C213        O214   1.263       .  A
C213       C1266   1.437       .  S
O214       Cr219   1.999       .  S
O215       Cr219   1.994       .  S
O215        C216   1.259       .  A
C216       C1267   1.430       .  S
Cr217       O220   1.763       .  S
Cr218       O220   1.777       .  S
Cr219       O220   1.771       .  S
O221       Cr239   1.975       .  S
O221        C229   1.259       .  A
O222       Cr239   2.003       .  S
O222        C223   1.262       .  A
C223        O224   1.259       .  A
C223       C1276   1.442       .  S
O224       Cr240   1.993       .  S
O225       Cr240   2.011       .  S
O225        C226   1.265       .  A
C226        O227   1.257       .  A
C226       C1259   1.429       .  S
O227       Cr241   1.965       .  S
O228       Cr241   2.011       .  S
O228        C229   1.264       .  A
C229       C1268   1.433       .  S
O230       Cr239   2.002       .  S
O230        C238   1.263       .  A
O231       Cr239   1.968       .  S
O231        C232   1.258       .  A
C232        O233   1.268       .  A
C232       C1289   1.438       .  S
O233       Cr240   2.025       .  S
O234       Cr240   1.979       .  S
O234        C235   1.259       .  A
C235        O236   1.263       .  A
C235       C1261   1.430       .  S
O236       Cr241   1.998       .  S
O237       Cr241   1.990       .  S
O237        C238   1.259       .  A
C238       C1264   1.439       .  S
Cr239       O242   1.762       .  S
Cr240       O242   1.778       .  S
Cr241       O242   1.774       .  S
O243       Cr261   1.990       .  S
O243        C251   1.258       .  A
O244       Cr261   1.962       .  S
O244        C245   1.257       .  A
C245        O246   1.268       .  A
C245       C1291   1.427       .  S
O246       Cr262   2.020       .  S
O247       Cr262   1.976       .  S
O247        C248   1.260       .  A
C248        O249   1.264       .  A
C248       C1258   1.429       .  S
O249       Cr263   1.999       .  S
O250       Cr263   1.998       .  S
O250        C251   1.259       .  A
C251       C1263   1.438       .  S
O252       Cr261   1.964       .  S
O252        C260   1.258       .  A
O253       Cr261   1.990       .  S
O253        C254   1.258       .  A
C254        O255   1.261       .  A
C254       C1286   1.436       .  S
O255       Cr262   2.000       .  S
O256       Cr262   2.006       .  S
O256        C257   1.263       .  A
C257        O258   1.257       .  A
C257       C1298   1.433       .  S
O258       Cr263   1.973       .  S
O259       Cr263   2.014       .  S
O259        C260   1.267       .  A
C260       C1270   1.427       .  S
Cr261       O264   1.761       .  S
Cr262       O264   1.777       .  S
Cr263       O264   1.771       .  S
O265       Cr283   1.965       .  S
O265        C273   1.258       .  A
O266       Cr283   1.998       .  S
O266        C267   1.260       .  A
C267        O268   1.261       .  A
C267       C1255   1.443       .  S
O268       Cr284   2.002       .  S
O269       Cr284   2.011       .  S
O269        C270   1.264       .  A
C270        O271   1.257       .  A
C270       C1279   1.435       .  S
O271       Cr285   1.972       .  S
O272       Cr285   2.011       .  S
O272        C273   1.266       .  A
C273       C1251   1.426       .  S
O274       Cr283   1.995       .  S
O274        C282   1.260       .  A
O275       Cr283   1.963       .  S
O275        C276   1.257       .  A
C276        O277   1.268       .  A
C276       C1253   1.431       .  S
O277       Cr284   2.023       .  S
O278       Cr284   1.981       .  S
O278        C279   1.261       .  A
C279        O280   1.265       .  A
C279       C1247   1.434       .  S
O280       Cr285   2.002       .  S
O281       Cr285   1.995       .  S
O281        C282   1.259       .  A
C282       C1250   1.439       .  S
Cr283       O286   1.764       .  S
Cr284       O286   1.778       .  S
Cr285       O286   1.773       .  S
O287       Cr305   1.997       .  S
O287        C295   1.261       .  A
O288       Cr305   1.973       .  S
O288        C289   1.260       .  A
C289        O290   1.269       .  A
C289       C1243   1.442       .  S
O290       Cr306   2.026       .  S
O291       Cr306   1.984       .  S
O291        C292   1.260       .  A
C292        O293   1.262       .  A
C292       C1237   1.434       .  S
O293       Cr307   1.998       .  S
O294       Cr307   1.995       .  S
O294        C295   1.260       .  A
C295       C1249   1.439       .  S
O296       Cr305   1.978       .  S
O296        C304   1.260       .  A
O297       Cr305   1.997       .  S
O297        C298   1.260       .  A
C298        O299   1.260       .  A
C298       C1242   1.444       .  S
O299       Cr306   2.000       .  S
O300       Cr306   2.012       .  S
O300        C301   1.265       .  A
C301        O302   1.258       .  A
C301       C1240   1.434       .  S
O302       Cr307   1.970       .  S
O303       Cr307   2.012       .  S
O303        C304   1.265       .  A
C304       C1245   1.435       .  S
Cr305       O308   1.766       .  S
Cr306       O308   1.780       .  S
Cr307       O308   1.776       .  S
O309       Cr327   1.982       .  S
O309        C317   1.255       .  A
O310       Cr327   1.959       .  S
O310        C311   1.257       .  A
C311        O312   1.269       .  A
C311       C1234   1.427       .  S
O312       Cr328   2.024       .  S
O313       Cr328   1.980       .  S
O313        C314   1.260       .  A
C314        O315   1.264       .  A
C314       C1232   1.431       .  S
O315       Cr329   1.998       .  S
O316       Cr329   1.998       .  S
O316        C317   1.259       .  A
C317       C1246   1.432       .  S
O318       Cr327   1.965       .  S
O318        C326   1.259       .  A
O319       Cr327   1.984       .  S
O319        C320   1.255       .  A
C320        O321   1.261       .  A
C320       C1235   1.435       .  S
O321       Cr328   2.005       .  S
O322       Cr328   2.009       .  S
O322        C323   1.264       .  A
C323        O324   1.257       .  A
C323       C1288   1.433       .  S
O324       Cr329   1.970       .  S
O325       Cr329   2.014       .  S
O325        C326   1.268       .  A
C326       C1252   1.426       .  S
Cr327       O330   1.761       .  S
Cr328       O330   1.776       .  S
Cr329       O330   1.770       .  S
O331       Cr349   1.967       .  S
O331        C339   1.259       .  A
O332       Cr349   1.984       .  S
O332        C333   1.255       .  A
C333        O334   1.262       .  A
C333       C1244   1.439       .  S
O334       Cr350   2.011       .  S
O335       Cr350   2.011       .  S
O335        C336   1.265       .  A
C336        O337   1.258       .  A
C336       C1265   1.437       .  S
O337       Cr351   1.973       .  S
O338       Cr351   2.022       .  S
O338        C339   1.270       .  A
C339       C1227   1.432       .  S
O340       Cr349   1.980       .  S
O340        C348   1.255       .  A
O341       Cr349   1.960       .  S
O341        C342   1.257       .  A
C342        O343   1.270       .  A
C342       C1254   1.430       .  S
O343       Cr350   2.027       .  S
O344       Cr350   1.989       .  S
O344        C345   1.262       .  A
C345        O346   1.266       .  A
C345       C1225   1.442       .  S
O346       Cr351   2.005       .  S
O347       Cr351   1.997       .  S
O347        C348   1.259       .  A
C348       C1230   1.431       .  S
Cr349       O352   1.763       .  S
Cr350       O352   1.777       .  S
Cr351       O352   1.771       .  S
O353       Cr371   1.978       .  S
O353        C361   1.260       .  A
O354       Cr371   1.995       .  S
O354        C355   1.260       .  A
C355        O356   1.261       .  A
C355       C1256   1.443       .  S
O356       Cr372   2.002       .  S
O357       Cr372   2.011       .  S
O357        C358   1.265       .  A
C358        O359   1.257       .  A
C358       C1220   1.430       .  S
O359       Cr373   1.965       .  S
O360       Cr373   2.011       .  S
O360        C361   1.265       .  A
C361       C1229   1.435       .  S
O362       Cr371   1.995       .  S
O362        C370   1.261       .  A
O363       Cr371   1.971       .  S
O363        C364   1.260       .  A
C364        O365   1.268       .  A
C364       C1236   1.439       .  S
O365       Cr372   2.022       .  S
O366       Cr372   1.987       .  S
O366        C367   1.261       .  A
C367        O368   1.262       .  A
C367       C1222   1.437       .  S
O368       Cr373   1.998       .  S
O369       Cr373   1.990       .  S
O369        C370   1.259       .  A
C370       C1223   1.435       .  S
Cr371       O374   1.765       .  S
Cr372       O374   1.779       .  S
Cr373       O374   1.775       .  S
O375       Cr393   1.993       .  S
O375        C383   1.259       .  A
O376       Cr393   1.961       .  S
O376        C377   1.256       .  A
C377        O378   1.267       .  A
C377       C1233   1.427       .  S
O378       Cr394   2.019       .  S
O379       Cr394   1.986       .  S
O379        C380   1.262       .  A
C380        O381   1.265       .  A
C380       C1218   1.439       .  S
O381       Cr395   2.005       .  S
O382       Cr395   1.990       .  S
O382        C383   1.258       .  A
C383       C1224   1.435       .  S
O384       Cr393   1.969       .  S
O384        C392   1.258       .  A
O385       Cr393   1.996       .  S
O385        C386   1.260       .  A
C386        O387   1.263       .  A
C386       C1241   1.443       .  S
O387       Cr394   2.005       .  S
O388       Cr394   2.007       .  S
O388        C389   1.263       .  A
C389        O390   1.257       .  A
C389       C1260   1.429       .  S
O390       Cr395   1.968       .  S
O391       Cr395   2.018       .  S
O391        C392   1.267       .  A
C392       C1228   1.433       .  S
Cr393       O396   1.763       .  S
Cr394       O396   1.778       .  S
Cr395       O396   1.771       .  S
O397       Cr415   2.000       .  S
O397        C405   1.262       .  A
O398       Cr415   1.958       .  S
O398        C399   1.255       .  A
C399        O400   1.267       .  A
C399       C1213   1.427       .  S
O400       Cr416   2.022       .  S
O401       Cr416   1.988       .  S
O401        C402   1.262       .  A
C402        O403   1.267       .  A
C402       C1317   1.442       .  S
O403       Cr417   2.010       .  S
O404       Cr417   1.987       .  S
O404        C405   1.258       .  A
C405       C1215   1.436       .  S
O406       Cr415   1.964       .  S
O406        C414   1.256       .  A
O407       Cr415   2.002       .  S
O407        C408   1.262       .  A
C408        O409   1.262       .  A
C408       C1210   1.445       .  S
O409       Cr416   2.002       .  S
O410       Cr416   2.009       .  S
O410        C411   1.264       .  A
C411        O412   1.257       .  A
C411       C1231   1.431       .  S
O412       Cr417   1.969       .  S
O413       Cr417   2.023       .  S
O413        C414   1.268       .  A
C414       C1211   1.433       .  S
Cr415       O418   1.762       .  S
Cr416       O418   1.777       .  S
Cr417       O418   1.770       .  S
O419       Cr437   1.971       .  S
O419        C427   1.260       .  A
O420       Cr437   1.987       .  S
O420        C421   1.256       .  A
C421        O422   1.262       .  A
C421       C1204   1.441       .  S
O422       Cr438   2.010       .  S
O423       Cr438   2.013       .  S
O423        C424   1.265       .  A
C424        O425   1.256       .  A
C424       C1239   1.433       .  S
O425       Cr439   1.967       .  S
O426       Cr439   2.019       .  S
O426        C427   1.268       .  A
C427       C1212   1.434       .  S
O428       Cr437   1.983       .  S
O428        C436   1.256       .  A
O429       Cr437   1.961       .  S
O429        C430   1.257       .  A
C430        O431   1.271       .  A
C430       C1205   1.435       .  S
O431       Cr438   2.032       .  S
O432       Cr438   1.990       .  S
O432        C433   1.263       .  A
C433        O434   1.265       .  A
C433       C1202   1.443       .  S
O434       Cr439   2.006       .  S
O435       Cr439   1.991       .  S
O435        C436   1.258       .  A
C436       C1207   1.428       .  S
Cr437       O440   1.764       .  S
Cr438       O440   1.777       .  S
Cr439       O440   1.771       .  S
O441       Cr459   1.976       .  S
O441        C449   1.260       .  A
O442       Cr459   1.988       .  S
O442        C443   1.257       .  A
C443        O444   1.259       .  A
C443       C1199   1.437       .  S
O444       Cr460   1.999       .  S
O445       Cr460   2.011       .  S
O445        C446   1.265       .  A
C446        O447   1.257       .  A
C446       C1196   1.430       .  S
O447       Cr461   1.965       .  S
O448       Cr461   2.010       .  S
O448        C449   1.265       .  A
C449       C1208   1.432       .  S
O450       Cr459   1.992       .  S
O450        C458   1.259       .  A
O451       Cr459   1.972       .  S
O451        C452   1.260       .  A
C452        O453   1.270       .  A
C452       C1197   1.441       .  S
O453       Cr460   2.028       .  S
O454       Cr460   1.982       .  S
O454        C455   1.260       .  A
C455        O456   1.262       .  A
C455       C1326   1.430       .  S
O456       Cr461   1.993       .  S
O457       Cr461   1.993       .  S
O457        C458   1.259       .  A
C458       C1216   1.435       .  S
Cr459       O462   1.763       .  S
Cr460       O462   1.778       .  S
Cr461       O462   1.774       .  S
O463       Cr481   1.987       .  S
O463        C471   1.257       .  A
O464       Cr481   1.968       .  S
O464        C465   1.260       .  A
C465        O466   1.272       .  A
C465       C1203   1.443       .  S
O466       Cr482   2.034       .  S
O467       Cr482   1.996       .  S
O467        C468   1.262       .  A
C468        O469   1.263       .  A
C468       C1302   1.446       .  S
O469       Cr483   2.002       .  S
O470       Cr483   2.003       .  S
O470        C471   1.262       .  A
C471       C1193   1.437       .  S
O472       Cr481   1.981       .  S
O472        C480   1.262       .  A
O473       Cr481   1.988       .  S
O473        C474   1.256       .  A
C474        O475   1.260       .  A
C474       C1209   1.444       .  S
O475       Cr482   2.008       .  S
O476       Cr482   2.017       .  S
O476        C477   1.267       .  A
C477        O478   1.260       .  A
C477       C1189   1.442       .  S
O478       Cr483   1.977       .  S
O479       Cr483   2.013       .  S
O479        C480   1.266       .  A
C480       C1191   1.436       .  S
Cr481       O484   1.770       .  S
Cr482       O484   1.780       .  S
Cr483       O484   1.776       .  S
O485       Cr503   1.989       .  S
O485        C493   1.260       .  A
O486       Cr503   1.965       .  S
O486        C487   1.258       .  A
C487        O488   1.269       .  A
C487       C1200   1.438       .  S
O488       Cr504   2.028       .  S
O489       Cr504   1.989       .  S
O489        C490   1.261       .  A
C490        O491   1.263       .  A
C490       C1226   1.441       .  S
O491       Cr505   2.005       .  S
O492       Cr505   1.983       .  S
O492        C493   1.258       .  A
C493       C1187   1.425       .  S
O494       Cr503   1.981       .  S
O494        C502   1.260       .  A
O495       Cr503   1.989       .  S
O495        C496   1.258       .  A
C496        O497   1.258       .  A
C496       C1206   1.435       .  S
O497       Cr504   1.994       .  S
O498       Cr504   2.011       .  S
O498        C499   1.266       .  A
C499        O500   1.256       .  A
C499       C1307   1.424       .  S
O500       Cr505   1.957       .  S
O501       Cr505   2.020       .  S
O501        C502   1.266       .  A
C502       C1194   1.440       .  S
Cr503       O506   1.764       .  S
Cr504       O506   1.778       .  S
Cr505       O506   1.771       .  S
O507       Cr525   1.984       .  S
O507        C515   1.255       .  A
O508       Cr525   1.963       .  S
O508        C509   1.259       .  A
C509        O510   1.269       .  A
C509       C1214   1.428       .  S
O510       Cr526   2.018       .  S
O511       Cr526   1.986       .  S
O511        C512   1.260       .  A
C512        O513   1.260       .  A
C512       C1185   1.432       .  S
O513       Cr527   1.989       .  S
O514       Cr527   2.000       .  S
O514        C515   1.260       .  A
C515       C1192   1.433       .  S
O516       Cr525   1.972       .  S
O516        C524   1.260       .  A
O517       Cr525   1.983       .  S
O517        C518   1.255       .  A
C518        O519   1.261       .  A
C518       C1198   1.438       .  S
O519       Cr526   2.007       .  S
O520       Cr526   2.007       .  S
O520        C521   1.265       .  A
C521        O522   1.258       .  A
C521       C1219   1.430       .  S
O522       Cr527   1.967       .  S
O523       Cr527   2.009       .  S
O523        C524   1.266       .  A
C524       C1188   1.427       .  S
Cr525       O528   1.763       .  S
Cr526       O528   1.776       .  S
Cr527       O528   1.772       .  S
O529       Cr547   1.965       .  S
O529        C537   1.256       .  A
O530       Cr547   2.000       .  S
O530        C531   1.261       .  A
C531        O532   1.261       .  A
C531       C1181   1.441       .  S
O532       Cr548   1.997       .  S
O533       Cr548   2.010       .  S
O533        C534   1.264       .  A
C534        O535   1.258       .  A
C534       C1175   1.432       .  S
O535       Cr549   1.970       .  S
O536       Cr549   2.019       .  S
O536        C537   1.267       .  A
C537       C1179   1.431       .  S
O538       Cr547   1.999       .  S
O538        C546   1.262       .  A
O539       Cr547   1.960       .  S
O539        C540   1.255       .  A
C540        O541   1.267       .  A
C540       C1184   1.429       .  S
O541       Cr548   2.022       .  S
O542       Cr548   1.983       .  S
O542        C543   1.261       .  A
C543        O544   1.266       .  A
C543       C1333   1.439       .  S
O544       Cr549   2.008       .  S
O545       Cr549   1.989       .  S
O545        C546   1.259       .  A
C546       C1178   1.437       .  S
Cr547       O550   1.762       .  S
Cr548       O550   1.777       .  S
Cr549       O550   1.771       .  S
O551       Cr569   1.982       .  S
O551        C559   1.261       .  A
O552       Cr569   1.989       .  S
O552        C553   1.257       .  A
C553        O554   1.260       .  A
C553       C1182   1.440       .  S
O554       Cr570   2.002       .  S
O555       Cr570   2.011       .  S
O555        C556   1.266       .  A
C556        O557   1.259       .  A
C556       C1167   1.432       .  S
O557       Cr571   1.968       .  S
O558       Cr571   2.013       .  S
O558        C559   1.265       .  A
C559       C1169   1.437       .  S
O560       Cr569   1.990       .  S
O560        C568   1.259       .  A
O561       Cr569   1.969       .  S
O561        C562   1.260       .  A
C562        O563   1.270       .  A
C562       C1171   1.440       .  S
O563       Cr570   2.026       .  S
O564       Cr570   1.990       .  S
O564        C565   1.260       .  A
C565        O566   1.262       .  A
C565       C1304   1.440       .  S
O566       Cr571   1.998       .  S
O567       Cr571   1.997       .  S
O567        C568   1.261       .  A
C568       C1174   1.435       .  S
Cr569       O572   1.767       .  S
Cr570       O572   1.780       .  S
Cr571       O572   1.774       .  S
O573       Cr591   1.981       .  S
O573        C581   1.256       .  A
O574       Cr591   1.963       .  S
O574        C575   1.258       .  A
C575        O576   1.272       .  A
C575       C1165   1.438       .  S
O576       Cr592   2.036       .  S
O577       Cr592   1.985       .  S
O577        C578   1.262       .  A
C578        O579   1.264       .  A
C578       C1161   1.435       .  S
O579       Cr593   1.999       .  S
O580       Cr593   1.992       .  S
O580        C581   1.258       .  A
C581       C1163   1.428       .  S
O582       Cr591   1.970       .  S
O582        C590   1.259       .  A
O583       Cr591   1.985       .  S
O583        C584   1.255       .  A
C584        O585   1.261       .  A
C584       C1172   1.437       .  S
O585       Cr592   2.006       .  S
O586       Cr592   2.016       .  S
O586        C587   1.266       .  A
C587        O588   1.256       .  A
C587       C1159   1.435       .  S
O588       Cr593   1.967       .  S
O589       Cr593   2.015       .  S
O589        C590   1.267       .  A
C590       C1180   1.431       .  S
Cr591       O594   1.763       .  S
Cr592       O594   1.776       .  S
Cr593       O594   1.771       .  S
O595       Cr613   1.992       .  S
O595        C603   1.259       .  A
O596       Cr613   1.973       .  S
O596        C597   1.261       .  A
C597        O598   1.269       .  A
C597       C1157   1.441       .  S
O598       Cr614   2.026       .  S
O599       Cr614   1.984       .  S
O599        C600   1.260       .  A
C600        O601   1.263       .  A
C600       C1324   1.436       .  S
O601       Cr615   1.999       .  S
O602       Cr615   1.994       .  S
O602        C603   1.260       .  A
C603       C1177   1.436       .  S
O604       Cr613   1.976       .  S
O604        C612   1.260       .  A
O605       Cr613   1.989       .  S
O605        C606   1.258       .  A
C606        O607   1.260       .  A
C606       C1156   1.437       .  S
O607       Cr614   1.999       .  S
O608       Cr614   2.013       .  S
O608        C609   1.265       .  A
C609        O610   1.257       .  A
C609       C1154   1.434       .  S
O610       Cr615   1.969       .  S
O611       Cr615   2.010       .  S
O611        C612   1.265       .  A
C612       C1164   1.432       .  S
Cr613       O616   1.765       .  S
Cr614       O616   1.778       .  S
Cr615       O616   1.775       .  S
O617       Cr635   1.976       .  S
O617        C625   1.261       .  A
O618       Cr635   1.983       .  S
O618        C619   1.255       .  A
C619        O620   1.261       .  A
C619       C1158   1.437       .  S
O620       Cr636   2.006       .  S
O621       Cr636   2.008       .  S
O621        C622   1.265       .  A
C622        O623   1.258       .  A
C622       C1149   1.431       .  S
O623       Cr637   1.967       .  S
O624       Cr637   2.018       .  S
O624        C625   1.268       .  A
C625       C1151   1.435       .  S
O626       Cr635   1.982       .  S
O626        C634   1.255       .  A
O627       Cr635   1.964       .  S
O627        C628   1.259       .  A
C628        O629   1.269       .  A
C628       C1183   1.430       .  S
O629       Cr636   2.021       .  S
O630       Cr636   1.987       .  S
O630        C631   1.260       .  A
C631        O632   1.263       .  A
C631       C1147   1.438       .  S
O632       Cr637   1.999       .  S
O633       Cr637   2.001       .  S
O633        C634   1.260       .  A
C634       C1170   1.433       .  S
Cr635       O638   1.764       .  S
Cr636       O638   1.779       .  S
Cr637       O638   1.772       .  S
O639       Cr657   1.977       .  S
O639        C647   1.260       .  A
O640       Cr657   1.988       .  S
O640        C641   1.258       .  A
C641        O642   1.259       .  A
C641       C1166   1.437       .  S
O642       Cr658   1.999       .  S
O643       Cr658   2.012       .  S
O643        C644   1.266       .  A
C644        O645   1.259       .  A
C644       C1300   1.433       .  S
O645       Cr659   1.969       .  S
O646       Cr659   2.018       .  S
O646        C647   1.267       .  A
C647       C1173   1.437       .  S
O648       Cr657   1.989       .  S
O648        C656   1.258       .  A
O649       Cr657   1.965       .  S
O649        C650   1.258       .  A
C650        O651   1.270       .  A
C650       C1155   1.438       .  S
O651       Cr658   2.030       .  S
O652       Cr658   1.986       .  S
O652        C653   1.260       .  A
C653        O654   1.264       .  A
C653       C1145   1.438       .  S
O654       Cr659   2.003       .  S
O655       Cr659   1.995       .  S
O655        C656   1.260       .  A
C656       C1152   1.433       .  S
Cr657       O660   1.765       .  S
Cr658       O660   1.779       .  S
Cr659       O660   1.773       .  S
O661       Cr679   1.967       .  S
O661        C669   1.257       .  A
O662       Cr679   1.996       .  S
O662        C663   1.260       .  A
C663        O664   1.258       .  A
C663       C1143   1.434       .  S
O664       Cr680   1.991       .  S
O665       Cr680   2.019       .  S
O665        C666   1.266       .  A
C666        O667   1.257       .  A
C666       C1136   1.438       .  S
O667       Cr681   1.971       .  S
O668       Cr681   2.020       .  S
O668        C669   1.267       .  A
C669       C1138   1.433       .  S
O670       Cr679   1.997       .  S
O670        C678   1.261       .  A
O671       Cr679   1.964       .  S
O671        C672   1.256       .  A
C672        O673   1.271       .  A
C672       C1141   1.441       .  S
O673       Cr680   2.038       .  S
O674       Cr680   1.977       .  S
O674        C675   1.260       .  A
C675        O676   1.267       .  A
C675       C1162   1.435       .  S
O676       Cr681   2.009       .  S
O677       Cr681   1.990       .  S
O677        C678   1.259       .  A
C678       C1139   1.436       .  S
Cr679       O682   1.763       .  S
Cr680       O682   1.778       .  S
Cr681       O682   1.771       .  S
O683       Cr701   1.992       .  S
O683        C691   1.259       .  A
O684       Cr701   1.959       .  S
O684        C685   1.256       .  A
C685        O686   1.272       .  A
C685       C1132   1.441       .  S
O686       Cr702   2.039       .  S
O687       Cr702   1.990       .  S
O687        C688   1.262       .  A
C688        O689   1.265       .  A
C688       C1201   1.443       .  S
O689       Cr703   2.007       .  S
O690       Cr703   1.990       .  S
O690        C691   1.259       .  A
C691       C1130   1.432       .  S
O692       Cr701   1.970       .  S
O692        C700   1.258       .  A
O693       Cr701   1.994       .  S
O693        C694   1.259       .  A
C694        O695   1.260       .  A
C694       C1133   1.443       .  S
O695       Cr702   2.004       .  S
O696       Cr702   2.018       .  S
O696        C697   1.267       .  A
C697        O698   1.258       .  A
C697       C1128   1.436       .  S
O698       Cr703   1.970       .  S
O699       Cr703   2.019       .  S
O699        C700   1.267       .  A
C700       C1137   1.433       .  S
Cr701       O704   1.765       .  S
Cr702       O704   1.777       .  S
Cr703       O704   1.772       .  S
O705       Cr723   1.995       .  S
O705        C713   1.260       .  A
O706       Cr723   1.965       .  S
O706        C707   1.258       .  A
C707        O708   1.267       .  A
C707       C1126   1.432       .  S
O708       Cr724   2.020       .  S
O709       Cr724   1.983       .  S
O709        C710   1.260       .  A
C710        O711   1.263       .  A
C710       C1153   1.434       .  S
O711       Cr725   2.000       .  S
O712       Cr725   1.993       .  S
O712        C713   1.260       .  A
C713       C1140   1.436       .  S
O714       Cr723   1.973       .  S
O714        C722   1.259       .  A
O715       Cr723   1.993       .  S
O715        C716   1.259       .  A
C716        O717   1.260       .  A
C716       C1123   1.438       .  S
O717       Cr724   1.997       .  S
O718       Cr724   2.009       .  S
O718        C719   1.264       .  A
C719        O720   1.258       .  A
C719       C1195   1.430       .  S
O720       Cr725   1.968       .  S
O721       Cr725   2.015       .  S
O721        C722   1.266       .  A
C722       C1129   1.433       .  S
Cr723       O726   1.763       .  S
Cr724       O726   1.779       .  S
Cr725       O726   1.773       .  S
O727       Cr745   1.993       .  S
O727        C735   1.260       .  A
O728       Cr745   1.962       .  S
O728        C729   1.256       .  A
C729        O730   1.268       .  A
C729       C1125   1.431       .  S
O730       Cr746   2.023       .  S
O731       Cr746   1.990       .  S
O731        C732   1.262       .  A
C732        O733   1.265       .  A
C732       C1118   1.442       .  S
O733       Cr747   2.006       .  S
O734       Cr747   1.996       .  S
O734        C735   1.261       .  A
C735       C1119   1.437       .  S
O736       Cr745   1.972       .  S
O736        C744   1.258       .  A
O737       Cr745   1.993       .  S
O737        C738   1.259       .  A
C738        O739   1.261       .  A
C738       C1142   1.441       .  S
O739       Cr746   2.001       .  S
O740       Cr746   2.008       .  S
O740        C741   1.264       .  A
C741        O742   1.259       .  A
C741       C1186   1.432       .  S
O742       Cr747   1.973       .  S
O743       Cr747   2.018       .  S
O743        C744   1.266       .  A
C744       C1121   1.435       .  S
Cr745       O748   1.764       .  S
Cr746       O748   1.779       .  S
Cr747       O748   1.772       .  S
O749       Cr767   1.993       .  S
O749        C757   1.260       .  A
O750       Cr767   1.956       .  S
O750        C751   1.256       .  A
C751        O752   1.270       .  A
C751       C1144   1.434       .  S
O752       Cr768   2.031       .  S
O753       Cr768   1.993       .  S
O753        C754   1.263       .  A
C754        O755   1.263       .  A
C754       C1190   1.441       .  S
O755       Cr769   2.000       .  S
O756       Cr769   1.991       .  S
O756        C757   1.260       .  A
C757       C1122   1.433       .  S
O758       Cr767   1.971       .  S
O758        C766   1.258       .  A
O759       Cr767   1.993       .  S
O759        C760   1.258       .  A
C760        O761   1.261       .  A
C760       C1134   1.443       .  S
O761       Cr768   2.006       .  S
O762       Cr768   2.013       .  S
O762        C763   1.266       .  A
C763        O764   1.258       .  A
C763       C1168   1.432       .  S
O764       Cr769   1.967       .  S
O765       Cr769   2.013       .  S
O765        C766   1.265       .  A
C766       C1116   1.430       .  S
Cr767       O770   1.766       .  S
Cr768       O770   1.778       .  S
Cr769       O770   1.771       .  S
O771       Cr789   1.963       .  S
O771        C779   1.256       .  A
O772       Cr789   1.997       .  S
O772        C773   1.260       .  A
C773        O774   1.260       .  A
C773       C1131   1.441       .  S
O774       Cr790   2.001       .  S
O775       Cr790   2.017       .  S
O775        C776   1.266       .  A
C776        O777   1.257       .  A
C776       C1148   1.438       .  S
O777       Cr791   1.971       .  S
O778       Cr791   2.019       .  S
O778        C779   1.267       .  A
C779       C1115   1.430       .  S
O780       Cr789   1.999       .  S
O780        C788   1.261       .  A
O781       Cr789   1.963       .  S
O781        C782   1.257       .  A
C782        O783   1.271       .  A
C782       C1124   1.438       .  S
O783       Cr790   2.035       .  S
O784       Cr790   1.986       .  S
O784        C785   1.262       .  A
C785        O786   1.266       .  A
C785       C1113   1.439       .  S
O786       Cr791   2.006       .  S
O787       Cr791   1.991       .  S
O787        C788   1.259       .  A
C788       C1120   1.438       .  S
Cr789       O792   1.764       .  S
Cr790       O792   1.778       .  S
Cr791       O792   1.772       .  S
O793       Cr811   1.966       .  S
O793        C801   1.258       .  A
O794       Cr811   1.996       .  S
O794        C795   1.259       .  A
C795        O796   1.261       .  A
C795       C1108   1.444       .  S
O796       Cr812   2.005       .  S
O797       Cr812   2.007       .  S
O797        C798   1.264       .  A
C798        O799   1.257       .  A
C798       C1262   1.431       .  S
O799       Cr813   1.969       .  S
O800       Cr813   2.017       .  S
O800        C801   1.267       .  A
C801       C1109   1.429       .  S
O802       Cr811   1.995       .  S
O802        C810   1.259       .  A
O803       Cr811   1.961       .  S
O803        C804   1.257       .  A
C804        O805   1.268       .  A
C804       C1106   1.430       .  S
O805       Cr812   2.021       .  S
O806       Cr812   1.986       .  S
O806        C807   1.261       .  A
C807        O808   1.265       .  A
C807       C1103   1.439       .  S
O808       Cr813   2.004       .  S
O809       Cr813   1.994       .  S
O809        C810   1.259       .  A
C810       C1112   1.438       .  S
Cr811       O814   1.763       .  S
Cr812       O814   1.778       .  S
Cr813       O814   1.773       .  S
O815       Cr833   1.997       .  S
O815        C823   1.261       .  A
O816       Cr833   1.971       .  S
O816        C817   1.260       .  A
C817        O818   1.268       .  A
C817       C1099   1.438       .  S
O818       Cr834   2.022       .  S
O819       Cr834   1.992       .  S
O819        C820   1.262       .  A
C820        O821   1.262       .  A
C820       C1096   1.438       .  S
O821       Cr835   1.996       .  S
O822       Cr835   1.993       .  S
O822        C823   1.259       .  A
C823       C1111   1.438       .  S
O824       Cr833   1.979       .  S
O824        C832   1.260       .  A
O825       Cr833   1.996       .  S
O825        C826   1.259       .  A
C826        O827   1.262       .  A
C826       C1098   1.447       .  S
O827       Cr834   2.007       .  S
O828       Cr834   2.009       .  S
O828        C829   1.265       .  A
C829        O830   1.257       .  A
C829       C1150   1.431       .  S
O830       Cr835   1.966       .  S
O831       Cr835   2.009       .  S
O831        C832   1.264       .  A
C832       C1101   1.433       .  S
Cr833       O836   1.766       .  S
Cr834       O836   1.780       .  S
Cr835       O836   1.776       .  S
O837       Cr855   1.981       .  S
O837        C845   1.255       .  A
O838       Cr855   1.960       .  S
O838        C839   1.258       .  A
C839        O840   1.268       .  A
C839       C1093   1.426       .  S
O840       Cr856   2.019       .  S
O841       Cr856   1.988       .  S
O841        C842   1.262       .  A
C842        O843   1.264       .  A
C842       C1146   1.438       .  S
O843       Cr857   2.000       .  S
O844       Cr857   1.996       .  S
O844        C845   1.259       .  A
C845       C1102   1.430       .  S
O846       Cr855   1.968       .  S
O846        C854   1.259       .  A
O847       Cr855   1.983       .  S
O847        C848   1.255       .  A
C848        O849   1.262       .  A
C848       C1092   1.439       .  S
O849       Cr856   2.011       .  S
O850       Cr856   2.004       .  S
O850        C851   1.263       .  A
C851        O852   1.257       .  A
C851       C1257   1.429       .  S
O852       Cr857   1.967       .  S
O853       Cr857   2.017       .  S
O853        C854   1.268       .  A
C854       C1110   1.429       .  S
Cr855       O858   1.762       .  S
Cr856       O858   1.776       .  S
Cr857       O858   1.771       .  S
O859       Cr877   1.981       .  S
O859        C867   1.261       .  A
O860       Cr877   1.995       .  S
O860        C861   1.260       .  A
C861        O862   1.261       .  A
C861       C1107   1.444       .  S
O862       Cr878   2.002       .  S
O863       Cr878   2.013       .  S
O863        C864   1.266       .  A
C864        O865   1.259       .  A
C864       C1160   1.435       .  S
O865       Cr879   1.971       .  S
O866       Cr879   2.012       .  S
O866        C867   1.264       .  A
C867       C1090   1.437       .  S
O868       Cr877   1.993       .  S
O868        C876   1.260       .  A
O869       Cr877   1.974       .  S
O869        C870   1.260       .  A
C870        O871   1.269       .  A
C870       C1091   1.443       .  S
O871       Cr878   2.026       .  S
O872       Cr878   1.990       .  S
O872        C873   1.261       .  A
C873        O874   1.262       .  A
C873       C1086   1.438       .  S
O874       Cr879   1.998       .  S
O875       Cr879   1.994       .  S
O875        C876   1.260       .  A
C876       C1087   1.436       .  S
Cr877       O880   1.766       .  S
Cr878       O880   1.780       .  S
Cr879       O880   1.776       .  S
O881       Cr899   1.998       .  S
O881        C889   1.260       .  A
O882       Cr899   1.959       .  S
O882        C883   1.257       .  A
C883        O884   1.268       .  A
C883       C1094   1.426       .  S
O884       Cr900   2.020       .  S
O885       Cr900   1.986       .  S
O885        C886   1.261       .  A
C886        O887   1.265       .  A
C886       C1082   1.439       .  S
O887       Cr901   2.003       .  S
O888       Cr901   1.991       .  S
O888        C889   1.257       .  A
C889       C1088   1.437       .  S
O890       Cr899   1.964       .  S
O890        C898   1.257       .  A
O891       Cr899   1.998       .  S
O891        C892   1.260       .  A
C892        O893   1.263       .  A
C892       C1097   1.447       .  S
O893       Cr900   2.008       .  S
O894       Cr900   2.010       .  S
O894        C895   1.264       .  A
C895        O896   1.256       .  A
C895       C1277   1.431       .  S
O896       Cr901   1.965       .  S
O897       Cr901   2.016       .  S
O897        C898   1.267       .  A
C898       C1084   1.428       .  S
Cr899       O902   1.763       .  S
Cr900       O902   1.777       .  S
Cr901       O902   1.772       .  S
O903       Cr921   1.967       .  S
O903        C911   1.259       .  A
O904       Cr921   1.983       .  S
O904        C905   1.255       .  A
C905        O906   1.261       .  A
C905       C1100   1.435       .  S
O906       Cr922   2.005       .  S
O907       Cr922   2.012       .  S
O907        C908   1.265       .  A
C908        O909   1.259       .  A
C908       C1272   1.438       .  S
O909       Cr923   1.976       .  S
O910       Cr923   2.014       .  S
O910        C911   1.267       .  A
C911       C1083   1.427       .  S
O912       Cr921   1.982       .  S
O912        C920   1.255       .  A
O913       Cr921   1.959       .  S
O913        C914   1.257       .  A
C914        O915   1.270       .  A
C914       C1105   1.429       .  S
O915       Cr922   2.027       .  S
O916       Cr922   1.982       .  S
O916        C917   1.260       .  A
C917        O918   1.263       .  A
C917       C1176   1.432       .  S
O918       Cr923   1.997       .  S
O919       Cr923   2.002       .  S
O919        C920   1.260       .  A
C920       C1089   1.434       .  S
Cr921       O924   1.763       .  S
Cr922       O924   1.777       .  S
Cr923       O924   1.770       .  S
O925       Cr943   1.963       .  S
O925        C933   1.257       .  A
O926       Cr943   1.997       .  S
O926        C927   1.259       .  A
C927        O928   1.262       .  A
C927       C1078   1.445       .  S
O928       Cr944   2.007       .  S
O929       Cr944   2.013       .  S
O929        C930   1.265       .  A
C930        O931   1.257       .  A
C930       C1221   1.437       .  S
O931       Cr945   1.973       .  S
O932       Cr945   2.013       .  S
O932        C933   1.266       .  A
C933       C1079   1.426       .  S
O934       Cr943   1.996       .  S
O934        C942   1.260       .  A
O935       Cr943   1.962       .  S
O935        C936   1.257       .  A
C936        O937   1.269       .  A
C936       C1074   1.432       .  S
O937       Cr944   2.025       .  S
O938       Cr944   1.990       .  S
O938        C939   1.263       .  A
C939        O940   1.265       .  A
C939       C1117   1.442       .  S
O940       Cr945   2.004       .  S
O941       Cr945   1.995       .  S
O941        C942   1.259       .  A
C942       C1076   1.439       .  S
Cr943       O946   1.765       .  S
Cr944       O946   1.777       .  S
Cr945       O946   1.774       .  S
O947       Cr965   1.979       .  S
O947        C955   1.261       .  A
O948       Cr965   1.996       .  S
O948        C949   1.259       .  A
C949        O950   1.261       .  A
C949       C1077   1.445       .  S
O950       Cr966   2.003       .  S
O951       Cr966   2.016       .  S
O951        C952   1.266       .  A
C952        O953   1.259       .  A
C952       C1085   1.439       .  S
O953       Cr967   1.973       .  S
O954       Cr967   2.011       .  S
O954        C955   1.265       .  A
C955       C1071   1.435       .  S
O956       Cr965   1.994       .  S
O956        C964   1.260       .  A
O957       Cr965   1.974       .  S
O957        C958   1.260       .  A
C958        O959   1.270       .  A
C958       C1069   1.444       .  S
O959       Cr966   2.029       .  S
O960       Cr966   1.988       .  S
O960        C961   1.261       .  A
C961        O962   1.262       .  A
C961       C1135   1.438       .  S
O962       Cr967   1.999       .  S
O963       Cr967   1.999       .  S
O963        C964   1.261       .  A
C964       C1067   1.440       .  S
Cr965       O968   1.768       .  S
Cr966       O968   1.780       .  S
Cr967       O968   1.777       .  S
O969       Cr987   1.966       .  S
O969        C977   1.259       .  A
O970       Cr987   1.983       .  S
O970        C971   1.254       .  A
C971        O972   1.262       .  A
C971       C1065   1.439       .  S
O972       Cr988   2.010       .  S
O973       Cr988   2.011       .  S
O973        C974   1.265       .  A
C974        O975   1.258       .  A
C974       C1248   1.434       .  S
O975       Cr989   1.971       .  S
O976       Cr989   2.017       .  S
O976        C977   1.268       .  A
C977       C1064   1.427       .  S
O978       Cr987   1.982       .  S
O978        C986   1.255       .  A
O979       Cr987   1.961       .  S
O979        C980   1.258       .  A
C980        O981   1.271       .  A
C980       C1073   1.431       .  S
O981       Cr988   2.028       .  S
O982       Cr988   1.988       .  S
O982        C983   1.262       .  A
C983        O984   1.264       .  A
C983       C1081   1.438       .  S
O984       Cr989   2.000       .  S
O985       Cr989   1.998       .  S
O985        C986   1.260       .  A
C986       C1072   1.432       .  S
Cr987       O990   1.764       .  S
Cr988       O990   1.776       .  S
Cr989       O990   1.772       .  S
O991      Cr1009   1.997       .  S
O991        C999   1.260       .  A
O992      Cr1009   1.963       .  S
O992        C993   1.257       .  A
C993        O994   1.268       .  A
C993       C1061   1.430       .  S
O994      Cr1010   2.022       .  S
O995      Cr1010   1.984       .  S
O995        C996   1.261       .  A
C996        O997   1.264       .  A
C996       C1127   1.436       .  S
O997      Cr1011   2.002       .  S
O998      Cr1011   1.995       .  S
O998        C999   1.259       .  A
C999       C1068   1.440       .  S
O1000     Cr1009   1.966       .  S
O1000      C1008   1.258       .  A
O1001     Cr1009   1.998       .  S
O1001      C1002   1.260       .  A
C1002      O1003   1.261       .  A
C1002      C1059   1.443       .  S
O1003     Cr1010   2.002       .  S
O1004     Cr1010   2.011       .  S
O1004      C1005   1.264       .  A
C1005      O1006   1.257       .  A
C1005      C1238   1.434       .  S
O1006     Cr1011   1.971       .  S
O1007     Cr1011   2.013       .  S
O1007      C1008   1.266       .  A
C1008      C1063   1.428       .  S
Cr1009     O1012   1.764       .  S
Cr1010     O1012   1.778       .  S
Cr1011     O1012   1.772       .  S
O1013     Cr1031   1.993       .  S
O1013      C1021   1.260       .  A
O1014     Cr1031   1.974       .  S
O1014      C1015   1.260       .  A
C1015      O1016   1.269       .  A
C1015      C1066   1.442       .  S
O1016     Cr1032   2.027       .  S
O1017     Cr1032   1.987       .  S
O1017      C1018   1.261       .  A
C1018      O1019   1.264       .  A
C1018      C1114   1.439       .  S
O1019     Cr1033   2.002       .  S
O1020     Cr1033   1.997       .  S
O1020      C1021   1.260       .  A
C1021      C1075   1.438       .  S
O1022     Cr1031   1.981       .  S
O1022      C1030   1.261       .  A
O1023     Cr1031   1.996       .  S
O1023      C1024   1.259       .  A
C1024      O1025   1.260       .  A
C1024      C1060   1.443       .  S
O1025     Cr1032   2.000       .  S
O1026     Cr1032   2.015       .  S
O1026      C1027   1.266       .  A
C1027      O1028   1.259       .  A
C1027      C1095   1.439       .  S
O1028     Cr1033   1.974       .  S
O1029     Cr1033   2.015       .  S
O1029      C1030   1.266       .  A
C1030      C1057   1.440       .  S
Cr1031     O1034   1.767       .  S
Cr1032     O1034   1.781       .  S
Cr1033     O1034   1.776       .  S
O1035     Cr1053   1.982       .  S
O1035      C1043   1.254       .  A
O1036     Cr1053   1.959       .  S
O1036      C1037   1.258       .  A
C1037      O1038   1.271       .  A
C1037      C1062   1.430       .  S
O1038     Cr1054   2.028       .  S
O1039     Cr1054   1.988       .  S
O1039      C1040   1.262       .  A
C1040      O1041   1.264       .  A
C1040      C1104   1.439       .  S
O1041     Cr1055   1.998       .  S
O1042     Cr1055   2.005       .  S
O1042      C1043   1.261       .  A
C1043      C1058   1.436       .  S
O1044     Cr1053   1.966       .  S
O1044      C1052   1.260       .  A
O1045     Cr1053   1.983       .  S
O1045      C1046   1.254       .  A
C1046      O1047   1.262       .  A
C1046      C1070   1.441       .  S
O1047     Cr1054   2.013       .  S
O1048     Cr1054   2.012       .  S
O1048      C1049   1.265       .  A
C1049      O1050   1.259       .  A
C1049      C1217   1.439       .  S
O1050     Cr1055   1.975       .  S
O1051     Cr1055   2.013       .  S
O1051      C1052   1.268       .  A
C1052      C1080   1.425       .  S
Cr1053     O1056   1.765       .  S
Cr1054     O1056   1.778       .  S
Cr1055     O1056   1.773       .  S
C1057      C1058   1.208       .  T
C1059      C1060   1.211       .  T
C1061      C1062   1.203       .  T
C1063      C1064   1.201       .  T
C1065      C1066   1.210       .  T
C1067      C1068   1.209       .  T
C1069      C1070   1.211       .  T
C1071      C1072   1.205       .  T
C1073      C1074   1.204       .  T
C1075      C1076   1.208       .  T
C1077      C1078   1.212       .  T
C1079      C1080   1.200       .  T
C1081      C1082   1.208   1_565  T
C1083      C1084   1.201       .  T
C1085      C1086   1.208   1_565  T
C1087      C1088   1.207       .  T
C1089      C1090   1.206       .  T
C1091      C1092   1.210       .  T
C1093      C1094   1.200       .  T
C1095      C1096   1.208       .  T
C1097      C1098   1.213       .  T
C1099      C1100   1.207       .  T
C1101      C1102   1.204       .  T
C1103      C1104   1.208       .  T
C1105      C1106   1.202       .  T
C1107      C1108   1.212       .  T
C1109      C1110   1.202       .  T
C1111      C1112   1.208       .  T
C1113      C1114   1.208       .  T
C1115      C1116   1.203       .  T
C1117      C1118   1.210       .  T
C1119      C1120   1.208       .  T
C1121      C1122   1.205       .  T
C1123      C1124   1.208       .  T
C1125      C1126   1.204       .  T
C1127      C1128   1.207   1_455  T
C1129      C1130   1.204       .  T
C1131      C1132   1.210       .  T
C1133      C1134   1.211       .  T
C1135      C1136   1.208   1_455  T
C1137      C1138   1.205       .  T
C1139      C1140   1.207       .  T
C1141      C1142   1.210       .  T
C1143      C1144   1.206       .  T
C1145      C1146   1.208       .  T
C1147      C1148   1.208       .  T
C1149      C1150   1.203       .  T
C1151      C1152   1.205       .  T
C1153      C1154   1.206   1_565  T
C1155      C1156   1.208       .  T
C1157      C1158   1.209       .  T
C1159      C1160   1.206   1_655  T
C1161      C1162   1.206   1_545  T
C1163      C1164   1.203       .  T
C1165      C1166   1.207       .  T
C1167      C1168   1.204       .  T
C1169      C1170   1.206       .  T
C1171      C1172   1.208       .  T
C1173      C1174   1.207       .  T
C1175      C1176   1.204   1_655  T
C1177      C1178   1.207       .  T
C1179      C1180   1.203       .  T
C1181      C1182   1.209       .  T
C1183      C1184   1.203       .  T
C1185      C1186   1.204       .  T
C1187      C1188   1.200       .  T
C1189      C1190   1.210       .  T
C1191      C1192   1.206       .  T
C1193      C1194   1.208       .  T
C1195      C1196   1.203   1_554  T
C1197      C1198   1.209       .  T
C1199      C1200   1.208       .  T
C1201      C1202   1.211   1_554  T
C1203      C1204   1.211       .  T
C1205      C1206   1.206       .  T
C1207      C1208   1.203       .  T
C1209      C1210   1.212       .  T
C1211      C1212   1.205       .  T
C1213      C1214   1.201       .  T
C1215      C1216   1.206       .  T
C1217      C1218   1.208       .  T
C1219      C1220   1.203       .  T
C1221      C1222   1.207       .  T
C1223      C1224   1.206       .  T
C1225      C1226   1.210       .  T
C1227      C1228   1.204       .  T
C1229      C1230   1.205       .  T
C1231      C1232   1.204   1_655  T
C1233      C1234   1.201       .  T
C1235      C1236   1.208       .  T
C1237      C1238   1.206   1_556  T
C1239      C1240   1.205   1_655  T
C1241      C1242   1.211       .  T
C1243      C1244   1.210       .  T
C1245      C1246   1.205       .  T
C1247      C1248   1.205   1_556  T
C1249      C1250   1.208       .  T
C1251      C1252   1.200       .  T
C1253      C1254   1.203       .  T
C1255      C1256   1.211       .  T
C1257      C1258   1.202       .  T
C1259      C1260   1.203       .  T
C1261      C1262   1.203       .  T
C1263      C1264   1.208       .  T
C1265      C1266   1.207       .  T
C1267      C1268   1.204       .  T
C1269      C1270   1.201       .  T
C1271      C1272   1.208   1_556  T
C1273      C1274   1.203       .  T
C1275      C1276   1.210       .  T
C1277      C1278   1.204   1_554  T
C1279      C1280   1.206   1_565  T
C1281      C1282   1.204       .  T
C1283      C1284   1.211       .  T
C1285      C1286   1.207       .  T
C1287      C1288   1.205   1_545  T
C1289      C1290   1.207       .  T
C1291      C1292   1.201       .  T
C1293      C1294   1.203       .  T
C1295      C1296   1.207       .  T
C1297      C1298   1.205       .  T
C1299      C1300   1.205       .  T
C1301      C1302   1.213       .  T
C1303      C1304   1.209       .  T
C1305      C1306   1.204       .  T
C1307      C1308   1.200       .  T
C1309      C1310   1.205       .  T
C1311      C1312   1.204       .  T
C1313      C1314   1.205       .  T
C1315      C1316   1.203   1_455  T
C1317      C1318   1.210   1_565  T
C1319      C1320   1.208       .  T
C1321      C1322   1.212       .  T
C1323      C1324   1.207   1_556  T
C1325      C1326   1.203   1_545  T
C1327      C1328   1.207       .  T
C1329      C1330   1.203       .  T
C1331      C1332   1.203       .  T
C1333      C1334   1.208   1_554  T
C1335      C1336   1.206   1_455  T
C1337      C1338   1.206       .  T
C1339      C1340   1.203       .  T
C1341      C1342   1.209       .  T
C1343      C1344   1.207       .  T
