geometry optimzed in LAMMPS
_audit_creation_date              2020-11-30 
_audit_creation_method            'lammps2cif' 
_symmetry_space_group_name_H-M    'P1' 
_symmetry_Int_Tables_number       1 
_symmetry_cell_setting            triclinic 
loop_ 
_symmetry_equiv_pos_as_xyz 
  x,y,z 
_cell_length_a                    19.89220688 
_cell_length_b                    32.78008552457558 
_cell_length_c                    27.562691353034417 
_cell_angle_alpha                 90.27316665912173 
_cell_angle_beta                  85.50992172119173 
_cell_angle_gamma                 91.85404322106648 
loop_ 
_atom_site_label 
_atom_site_type_symbol 
_atom_site_fract_x 
_atom_site_fract_y 
_atom_site_fract_z 
_atom_site_charge 
C1          C  0.12544202  0.99096675  0.27253571     0.30200
C2          C  0.46825538  0.99183207  0.27450640     0.30200
C3          C  0.07870452  0.97755037  0.31859330    -0.06000
C4          C  0.08966473  0.03289904  0.26141436    -0.06800
C5          C  0.08502383  0.96275995  0.23575674    -0.06600
C6          C  0.50743152  0.97907297  0.32040591    -0.06000
C7          C  0.50996775  0.03340810  0.26343446    -0.06800
C8          C  0.51045634  0.96418982  0.23566732    -0.06600
C9          C  0.48819422  0.96865925  0.36849023    -0.32000
N10         N  0.04540357  0.98663895  0.39591779     0.14500
C11         C  0.09581907  0.97278871  0.36548241    -0.32000
H12         H  0.14314164  0.96213566  0.37621862     0.16400
C13         C  0.49123055  0.07161538  0.24838503    -0.31000
N14         N  0.54642295  0.09544488  0.23412144     0.13200
C15         C  0.11349450  0.07125711  0.24478798    -0.31000
C16         C  0.49131785  0.93339438  0.20345201    -0.31300
N17         N  0.54632596  0.91453224  0.18144703     0.13700
H18         H  0.43968485  0.92437866  0.19811770     0.16300
C19         C  0.10142357  0.93023371  0.20388592    -0.31300
H20         H  0.15148858  0.91870544  0.19628881     0.16300
H21         H  0.16540365  0.08197414  0.24108666     0.16300
H22         H  0.43731663  0.96316664  0.38386740     0.16400
H23         H  0.44032111  0.08167687  0.24731610     0.16300
C24         C  0.21853795  0.99209947  0.27716408     0.30200
C25         C  0.37447755  0.99207106  0.27656084     0.30200
C26         C  0.25652638  0.01213860  0.32239045    -0.06000
C27         C  0.25699171  0.95122219  0.27680945    -0.06800
C28         C  0.26491319  0.01244520  0.23448382    -0.06600
C29         C  0.33090187  0.01201597  0.32129551    -0.06000
C30         C  0.33075437  0.95069672  0.27650683    -0.06800
C31         C  0.33829357  0.01337877  0.23429249    -0.06600
C32         C  0.34672696  0.01844328  0.36923054    -0.32000
N33         N  0.29018711  0.01963575  0.40023253     0.14500
C34         C  0.23629007  0.01863513  0.37224939    -0.32000
H35         H  0.18559308  0.02217709  0.38768017     0.16400
C36         C  0.34565541  0.90991167  0.27908117    -0.31000
N37         N  0.28720571  0.88688326  0.28105795     0.13200
C38         C  0.23399844  0.91160100  0.27999999    -0.31000
C39         C  0.36031251  0.03915610  0.19595504    -0.31300
N40         N  0.30679181  0.05461038  0.17519571     0.13700
H41         H  0.41181854  0.04741011  0.18444338     0.16300
C42         C  0.25009370  0.03570212  0.19549817    -0.31300
H43         H  0.20062738  0.04058264  0.18377444     0.16300
H44         H  0.18164317  0.90133605  0.28120967     0.16300
H45         H  0.39671626  0.02192741  0.38108320     0.16400
H46         H  0.39545321  0.89780605  0.28030674     0.16300
C47         C  0.11236778  0.99380350  0.57470328     0.30200
C48         C  0.95691503  0.99582785  0.57242976     0.30200
C49         C  0.07789073  0.99422179  0.52370302    -0.06000
C50         C  0.06641232  0.95704661  0.59524072    -0.06800
C51         C  0.07148165  0.02984486  0.59860144    -0.06600
C52         C  0.00465841  0.99901217  0.52355869    -0.06000
C53         C  0.99239691  0.95766451  0.59260599    -0.06800
C54         C  0.99730883  0.03124765  0.59796087    -0.06600
C55         C  0.99305086  0.00487462  0.47597240    -0.32000
N56         N  0.04649178  0.99289926  0.44683436     0.14500
C57         C  0.09703693  0.98427541  0.47533131    -0.32000
H58         H  0.14343330  0.97048144  0.46198299     0.16400
C59         C  0.97403254  0.91781774  0.58209646    -0.31000
N60         N  0.02668339  0.89298474  0.58275782     0.13200
C61         C  0.08251314  0.91655808  0.58822581    -0.31000
C62         C  0.98527278  0.07286860  0.59552913    -0.31300
N63         N  0.04298458  0.09550512  0.59779026     0.13700
H64         H  0.43468594  0.07931439  0.57285087     0.16300
C65         C  0.09443636  0.06977765  0.59641411    -0.31300
H66         H  0.14615622  0.07916255  0.58743956     0.16300
H67         H  0.13295750  0.90604301  0.58066366     0.16300
H68         H  0.45943010  0.00982040  0.45669622     0.16400
H69         H  0.42359737  0.90765245  0.57613568     0.16300
C70         C  0.20582807  0.99548790  0.58056987     0.30200
C71         C  0.36178704  0.99363800  0.57574743     0.30200
C72         C  0.24962692  0.00278980  0.53084114    -0.06000
C73         C  0.24807648  0.02897197  0.61067498    -0.06800
C74         C  0.24321985  0.95654361  0.60228342    -0.06600
C75         C  0.32140901  0.99729814  0.52739976    -0.06000
C76         C  0.32222654  0.02815454  0.60793815    -0.06800
C77         C  0.31731879  0.95669201  0.60096791    -0.06600
C78         C  0.33788568  0.99811603  0.47700867    -0.32000
N79         N  0.28862692  0.01457734  0.45232257     0.14500
C80         C  0.23564701  0.01932921  0.48581155    -0.32000
H81         H  0.19080963  0.03494811  0.47833641     0.16400
C82         C  0.34179383  0.05688402  0.64282080    -0.31000
N83         N  0.28777665  0.07691883  0.66402695     0.13200
C84         C  0.23147287  0.05863732  0.64657903    -0.31000
C85         C  0.33179146  0.93087620  0.63940743    -0.31300
N86         N  0.27581010  0.91113430  0.66064419     0.13700
H87         H  0.38028402  0.92913166  0.65385314     0.16300
C88         C  0.22240491  0.92851417  0.64048754    -0.31300
H89         H  0.17100931  0.92381847  0.65556757     0.16300
H90         H  0.18106191  0.06513892  0.66121280     0.16300
H91         H  0.37211029  0.97746704  0.45899852     0.16400
H92         H  0.39228732  0.06199436  0.65351850     0.16300
O93         O  0.39971792  0.53298009  0.94398847    -0.80700
O94         O  0.15031999  0.54649035  0.86477065    -0.65400
O95         O  0.43391441  0.50367536  0.85176093    -1.12000
C96         C  0.03777209  0.38038669  0.93048624     1.06200
O97         O  0.18910463  0.48756610  0.86867104    -0.78600
O98         O  0.12791770  0.41966622  0.83148272    -0.66200
Ni99       Ni  0.38134168  0.54651844  0.87936992     1.34900
C100        C  0.07671480  0.41617402  0.80629218     0.84900
O101        O  0.04904037  0.57209180  0.81456483    -0.79100
O102        O  0.37493925  0.56450641  0.81420546    -0.89400
C103        C  0.17465260  0.52058028  0.89034631     0.84500
O104        O  0.43640680  0.59548478  0.88730938    -0.67600
O105        O  0.09787064  0.39474082  0.92560221    -0.86900
C106        C  0.00580358  0.59360870  0.91807229     0.85300
C107        C  0.99798231  0.58189071  0.79134638     1.06900
H108        H  0.05380345  0.48238838  0.93051631     0.38700
O109        O  0.06309908  0.47539581  0.89712574    -1.09500
O110        O  0.46246306  0.42616145  0.81688290    -0.66200
Ni111      Ni  0.45274080  0.45082777  0.88067263     1.26300
O112        O  0.03929023  0.56090006  0.91723154    -0.66400
O113        O  0.47393606  0.39853950  0.91137553    -0.78700
C114        C  0.43025100  0.50438132  0.96291420     0.84700
O115        O  0.44603849  0.47165693  0.94278514    -0.65900
Ni116      Ni  0.14129646  0.44192202  0.89479468     1.27400
Ni117      Ni  0.06075041  0.52666258  0.85796923     1.26100
H118        H  0.41478825  0.49629265  0.82168835     0.39300
O119        O  0.44559142  0.54011238  0.03163314    -0.80700
O120        O  0.16454982  0.55447081  0.96453481    -0.65400
O121        O  0.30695365  0.52410917  0.03687485    -1.12000
C122        C  0.31720506  0.40209479  0.92612105     1.06200
O123        O  0.14585382  0.49069963  0.97057336    -0.78600
O124        O  0.19728589  0.41755105  0.00313599    -0.66200
Ni125      Ni  0.36719724  0.56783808  0.05693725     1.34900
C126        C  0.23758762  0.41320932  0.03656888     0.84900
O127        O  0.20603171  0.58265004  0.04533072    -0.79100
O128        O  0.29390420  0.59423125  0.09031432    -0.89400
C129        C  0.15316284  0.52216026  0.94346599     0.84500
O130        O  0.36256131  0.60781677  0.00177642    -0.67600
O131        O  0.26086154  0.41455242  0.91518541    -0.86900
C132        C  0.32456341  0.60964081  0.96576857     0.85300
C133        C  0.23303250  0.59875415  0.08147864     1.06900
H134        H  0.28901925  0.50099992  0.92995731     0.38700
O135        O  0.26692467  0.49133926  0.96038416    -1.09500
O136        O  0.28238321  0.44039296  0.04490344    -0.66200
Ni137      Ni  0.33369785  0.47478996  0.99851562     1.26300
O138        O  0.28444720  0.57959903  0.95790420    -0.66400
O139        O  0.35175459  0.42131488  0.95886716    -0.78700
C140        C  0.43889484  0.50493655  0.01322651     0.84700
O141        O  0.40963332  0.47466267  0.03618705    -0.65900
Ni142      Ni  0.20114069  0.45155239  0.94517070     1.27400
Ni143      Ni  0.23586923  0.53984250  0.00126702     1.26100
H144        H  0.28568088  0.51386631  0.06733527     0.39300
C145        C  0.27490777  0.87800265  0.69818129    -0.03000
C146        C  0.32977522  0.87173484  0.72750135    -0.05600
C147        C  0.33096603  0.83805320  0.76068247    -0.20700
C148        C  0.27773479  0.80810558  0.76621469     0.25500
C149        C  0.22297637  0.81470578  0.73715870    -0.18200
C150        C  0.22134146  0.84849285  0.70453234    -0.08200
C151        C  0.27660876  0.76927107  0.79954382    -0.18500
C152        C  0.32039684  0.75922970  0.83430147    -0.23300
C153        C  0.31869700  0.72031623  0.86755092     0.27100
C154        C  0.27912179  0.68418766  0.86111180    -0.20000
C155        C  0.28241431  0.64897537  0.89170403    -0.09700
C156        C  0.32466859  0.64761865  0.93121512    -0.10200
C157        C  0.36227158  0.68421987  0.93846810    -0.03200
C158        C  0.36031021  0.71899769  0.90724696    -0.18300
H159        H  0.37264181  0.89294889  0.72501741     0.10800
H160        H  0.37458764  0.83529271  0.78137958     0.10900
H161        H  0.18057973  0.79305388  0.73926499     0.10500
H162        H  0.17833336  0.85074658  0.68305223     0.11700
H163        H  0.23514823  0.74760873  0.79509709     0.11700
H164        H  0.36059737  0.78146630  0.84002103     0.13700
H165        H  0.24598358  0.68259242  0.83181617     0.10200
H166        H  0.25087940  0.62249024  0.88431919     0.12300
H167        H  0.39326341  0.68621054  0.96890690     0.08900
H168        H  0.39156665  0.74557727  0.91477677     0.11600
C169        C  0.28981613  0.11291614  0.69717511    -0.03000
C170        C  0.23879343  0.14206620  0.69897637    -0.05600
C171        C  0.24208830  0.17805505  0.72780791    -0.20700
C172        C  0.29598909  0.18711355  0.75727747     0.25100
C173        C  0.34678117  0.15767630  0.75643051    -0.18200
C174        C  0.34402260  0.12166106  0.72679742    -0.08200
C175        C  0.29697485  0.22826521  0.78536139    -0.18500
C176        C  0.33802734  0.24123139  0.82100456    -0.23300
C177        C  0.33646168  0.28336808  0.84703215     0.27100
C178        C  0.30865271  0.31800894  0.82726612    -0.20000
C179        C  0.30872830  0.35630092  0.85153278    -0.09700
C180        C  0.33551640  0.36270192  0.89758532    -0.10200
C181        C  0.36360713  0.32812229  0.91748889    -0.03200
C182        C  0.36523499  0.28968606  0.89234146    -0.18300
H183        H  0.19660068  0.13773063  0.67677924     0.10800
H184        H  0.20184377  0.19942020  0.72653807     0.10900
H185        H  0.38960318  0.16271047  0.77784809     0.10500
H186        H  0.38472593  0.10060549  0.72722197     0.11700
H187        H  0.25898046  0.24925940  0.77604771     0.11700
H188        H  0.37379138  0.21981633  0.83286542     0.13700
H189        H  0.28681060  0.31594615  0.79258296     0.10200
H190        H  0.28511925  0.38119765  0.83437493     0.12300
H191        H  0.38179623  0.33023028  0.95341676     0.08900
H192        H  0.38745450  0.26422831  0.90935378     0.11600
C193        C  0.02255849  0.84891025  0.58024082    -0.03000
C194        C  0.95959747  0.82821804  0.58886861    -0.05600
C195        C  0.95576107  0.78638857  0.59739875    -0.20700
C196        C  0.01454919  0.76428435  0.59846933     0.25100
C197        C  0.07723425  0.78371115  0.58517799    -0.18200
C198        C  0.08117615  0.82565952  0.57585925    -0.08200
C199        C  0.00815327  0.72283652  0.61945309    -0.18500
C200        C  0.05345106  0.70859386  0.64830317    -0.23300
C201        C  0.03706930  0.67390285  0.68171892     0.27100
C202        C  0.08864502  0.64872693  0.69399749    -0.20000
C203        C  0.07529670  0.61782343  0.72845191    -0.09700
C204        C  0.01015490  0.61183483  0.75158870    -0.10200
C205        C  0.95849111  0.63706209  0.73929396    -0.03200
C206        C  0.97187305  0.66798348  0.70490235    -0.18300
H207        H  0.62024848  0.83917077  0.61083005     0.10800
H208        H  0.60349387  0.76694630  0.62862357     0.10900
H209        H  0.12334510  0.76695339  0.58391530     0.10500
H210        H  0.13051166  0.83982204  0.56767088     0.11700
H211        H  0.96002951  0.70646126  0.61768506     0.11700
H212        H  0.10191774  0.72441775  0.65057680     0.13700
H213        H  0.13942459  0.65324180  0.67721863     0.10200
H214        H  0.11622430  0.59897395  0.73753453     0.12300
H215        H  0.33558439  0.63535760  0.78602296     0.08900
H216        H  0.33780395  0.69298148  0.72970535     0.11600
C217        C  0.04984650  0.13936191  0.60244444    -0.03000
C218        C  0.99743241  0.16173325  0.62587846    -0.05600
C219        C  0.00901906  0.20231173  0.64011872    -0.20700
C220        C  0.07339985  0.22121591  0.63111637     0.25100
C221        C  0.12424500  0.19968722  0.60528585    -0.18200
C222        C  0.11248218  0.15957696  0.59049884    -0.08200
C223        C  0.09213954  0.26114880  0.65263993    -0.18500
C224        C  0.04771237  0.28986206  0.66614793    -0.23300
C225        C  0.06592023  0.32662427  0.69464796     0.27100
C226        C  0.02393428  0.36021322  0.69543236    -0.20000
C227        C  0.03174565  0.39197006  0.72870854    -0.09700
C228        C  0.08163437  0.39059171  0.76201539    -0.10200
C229        C  0.12734091  0.35875512  0.75845540    -0.03200
C230        C  0.11926014  0.32687636  0.72544116    -0.18300
H231        H  0.94885912  0.14709874  0.63612972     0.10800
H232        H  0.96882396  0.21769997  0.66079790     0.10900
H233        H  0.17416982  0.21354102  0.59784646     0.10500
H234        H  0.15378035  0.14413228  0.57134579     0.11700
H235        H  0.14519255  0.26678220  0.65777063     0.11700
H236        H  0.99575177  0.28606022  0.65703550     0.13700
H237        H  0.98271885  0.36084461  0.67200961     0.10200
H238        H  0.99590529  0.41621942  0.73053937     0.12300
H239        H  0.16565870  0.35650023  0.78408703     0.08900
H240        H  0.15185758  0.30121753  0.72694421     0.11600
C241        C  0.28071859  0.84313609  0.28078517    -0.03000
C242        C  0.22468631  0.82352209  0.30612792    -0.05600
C243        C  0.20967657  0.78234235  0.29792823    -0.20700
C244        C  0.25117012  0.76013856  0.26484813     0.25100
C245        C  0.31014062  0.77864783  0.24253584    -0.18200
C246        C  0.32470230  0.82005121  0.25021681    -0.08200
C247        C  0.22900317  0.71984918  0.24759256    -0.18500
C248        C  0.17295155  0.71628807  0.22347002    -0.23300
C249        C  0.16677416  0.68322606  0.18777977     0.27100
C250        C  0.17403944  0.64248037  0.20096793    -0.20000
C251        C  0.18747010  0.61316647  0.16499237    -0.09700
C252        C  0.19403682  0.62444509  0.11573605    -0.10200
C253        C  0.18128198  0.66439585  0.10252424    -0.03200
C254        C  0.16699457  0.69359860  0.13849610    -0.18300
H255        H  0.19067947  0.84065289  0.33043542     0.10800
H256        H  0.16418193  0.76830160  0.31556730     0.10900
H257        H  0.34216549  0.76183742  0.21643241     0.10500
H258        H  0.36757544  0.83461989  0.22981931     0.11700
H259        H  0.26583405  0.69599346  0.24431802     0.11700
H260        H  0.14112919  0.74245642  0.22105558     0.13700
H261        H  0.17459132  0.63409477  0.23889968     0.10200
H262        H  0.19881389  0.58252905  0.17568226     0.12300
H263        H  0.18843609  0.67380758  0.06478831     0.08900
H264        H  0.16364595  0.72509895  0.12787010     0.11600
C265        C  0.23819623  0.37301909  0.06287648    -0.03000
C266        C  0.20800188  0.33751254  0.04374952    -0.05600
C267        C  0.21986467  0.29839441  0.06184437    -0.20700
C268        C  0.26225529  0.29345217  0.09992281     0.25100
C269        C  0.29105024  0.32897332  0.11978118    -0.18200
C270        C  0.27984331  0.36795666  0.10135349    -0.08200
C271        C  0.27666614  0.25241113  0.12091421    -0.18500
C272        C  0.27030321  0.21598393  0.09769404    -0.23300
C273        C  0.28564729  0.17513874  0.11875199     0.27100
C274        C  0.29698136  0.14156544  0.08720280    -0.20000
C275        C  0.30679819  0.10222705  0.10529827    -0.09700
C276        C  0.30562817  0.09542523  0.15549130    -0.10200
C277        C  0.29516888  0.12883728  0.18719424    -0.03200
C278        C  0.28523312  0.16811768  0.16922144    -0.18300
H279        H  0.17747937  0.33983850  0.01318245     0.10800
H280        H  0.19603252  0.27217197  0.04569530     0.10900
H281        H  0.32394606  0.32652101  0.14907410     0.10500
H282        H  0.30558058  0.39413351  0.11642176     0.11700
H283        H  0.29660490  0.25275821  0.15644046     0.11700
H284        H  0.25532800  0.21584913  0.06068434     0.13700
H285        H  0.29703734  0.14565891  0.04824304     0.10200
H286        H  0.31357752  0.07691351  0.08022788     0.12300
H287        H  0.29245489  0.12405983  0.22616447     0.08900
H288        H  0.27478962  0.19242298  0.19510300     0.11600
C289        C  0.03947406  0.87876294  0.15106410    -0.03000
C290        C  0.98881192  0.87598172  0.11783915    -0.05600
C291        C  0.98158215  0.84166028  0.08704468    -0.20700
C292        C  0.02356493  0.80779622  0.08828167     0.25100
C293        C  0.48578931  0.83046596  0.09267829    -0.18200
C294        C  0.48769686  0.86646657  0.12263525    -0.08200
C295        C  0.01486212  0.77261592  0.05193077    -0.18500
C296        C  0.52770503  0.75279401  0.01365723    -0.23300
C297        C  0.52812110  0.71067187  0.98667420     0.27100
C298        C  0.52219290  0.67184541  0.00956914    -0.20000
C299        C  0.51760808  0.63446829  0.98228762    -0.09700
C300        C  0.01654217  0.62945158  0.95259347    -0.10200
C301        C  0.99707400  0.66917083  0.94069716    -0.03200
C302        C  0.00224017  0.70272030  0.97316987    -0.18300
H303        H  0.95485732  0.90082635  0.11496824     0.10800
H304        H  0.94239860  0.84164062  0.06188144     0.10900
H305        H  0.44025062  0.82291368  0.07501923     0.10500
H306        H  0.44376904  0.88519003  0.12559684     0.11700
H307        H  0.98835716  0.77996420  0.02037177     0.11700
H308        H  0.52124748  0.77922149  0.99107788     0.13700
H309        H  0.51899231  0.67015998  0.04885961     0.10200
H310        H  0.51063073  0.60607266  0.00202297     0.12300
H311        H  0.97761159  0.67444176  0.90573369     0.08900
H312        H  0.98691604  0.73218485  0.96144643     0.11600
C313        C  0.02607126  0.34228266  0.96096677    -0.03000
C314        C  0.53835114  0.35285814  0.00996636    -0.05600
C315        C  0.54035060  0.31872257  0.04153789    -0.20700
C316        C  0.53118199  0.27825972  0.02453146     0.25100
C317        C  0.07105312  0.27905966  0.99210433    -0.18200
C318        C  0.07351894  0.31106413  0.95772290    -0.08200
C319        C  0.52948119  0.24018541  0.05703787    -0.18500
C320        C  0.06724633  0.21807725  0.07931188    -0.23300
C321        C  0.06596087  0.18781817  0.12117257     0.27100
C322        C  0.11178013  0.15576070  0.11826588    -0.20000
C323        C  0.11271350  0.12662737  0.15568743    -0.09700
C324        C  0.06727171  0.12805845  0.19751249    -0.10200
C325        C  0.58514397  0.16699275  0.21004784    -0.03200
C326        C  0.58613628  0.20071872  0.17782277    -0.18300
H327        H  0.54605746  0.38322656  0.02455558     0.10800
H328        H  0.54839483  0.32433798  0.07936028     0.10900
H329        H  0.10905060  0.25625175  0.98771723     0.10500
H330        H  0.11416465  0.31210677  0.92915858     0.11700
H331        H  0.50931302  0.21235836  0.04150102     0.11700
H332        H  0.10981761  0.21631995  0.05245526     0.13700
H333        H  0.14652469  0.15274229  0.08628686     0.10200
H334        H  0.14733431  0.10188341  0.15089919     0.12300
H335        H  0.61432373  0.16902329  0.24156262     0.08900
H336        H  0.61611200  0.22769466  0.18594616     0.11600
C337        C  0.62456828  0.99459219  0.27032284     0.30200
C338        C  0.96980919  0.99503019  0.27254098     0.30200
C339        C  0.58115057  0.97999827  0.31774645    -0.06000
C340        C  0.58367010  0.03514762  0.26158825    -0.06800
C341        C  0.58453077  0.96506237  0.23322742    -0.06600
C342        C  0.00581307  0.98385814  0.32059400    -0.06000
C343        C  0.01617744  0.03454144  0.26118890    -0.06800
C344        C  0.01144936  0.96538272  0.23577857    -0.06600
C345        C  0.99463778  0.99691419  0.36867256    -0.32000
N346        N  0.54338052  0.96610935  0.39474158     0.14500
C347        C  0.59893575  0.96883917  0.36330607    -0.32000
H348        H  0.64859328  0.96237967  0.37317448     0.16400
C349        C  0.00317599  0.07361671  0.24607533    -0.31000
N350        N  0.06174915  0.09433334  0.23230125     0.13200
C351        C  0.60181179  0.07485349  0.24532193    -0.31000
C352        C  0.99154496  0.93644787  0.20224797    -0.31300
N353        N  0.04486661  0.91430792  0.18399625     0.13700
H354        H  0.94047159  0.93130780  0.19249305     0.16300
C355        C  0.60225582  0.93417912  0.19875963    -0.31300
H356        H  0.65347595  0.92633948  0.18752741     0.16300
H357        H  0.65217007  0.08802971  0.24092460     0.16300
H358        H  0.95764968  0.01850376  0.38130484     0.16400
H359        H  0.95421894  0.08622521  0.24410348     0.16300
C360        C  0.71855767  0.99729070  0.27319818     0.30200
C361        C  0.87502624  0.99486951  0.27215922     0.30200
C362        C  0.75742481  0.01330224  0.32006277    -0.06000
C363        C  0.75661939  0.95619769  0.26697129    -0.06800
C364        C  0.76543626  0.02158654  0.23351804    -0.06600
C365        C  0.83122655  0.00859012  0.31961128    -0.06000
C366        C  0.83031601  0.95447677  0.26584974    -0.06800
C367        C  0.83912925  0.02158036  0.23350551    -0.06600
C368        C  0.84029497  0.99748708  0.36704562    -0.32000
N369        N  0.78704792  0.00628622  0.39799441     0.14500
C370        C  0.73644870  0.01677387  0.37006854    -0.32000
H371        H  0.68664560  0.02445193  0.38490823     0.16400
C372        C  0.84363241  0.91334326  0.26248936    -0.31000
N373        N  0.78475481  0.89121935  0.26002117     0.13200
C374        C  0.73259016  0.91690564  0.26473039    -0.31000
C375        C  0.86197976  0.04919297  0.19697385    -0.31300
N376        N  0.80902505  0.06665829  0.17737767     0.13700
H377        H  0.91370386  0.05588322  0.18429814     0.16300
C378        C  0.75144720  0.04780626  0.19668441    -0.31300
H379        H  0.70238391  0.05347976  0.18475674     0.16300
H380        H  0.67999266  0.90772333  0.26547104     0.16300
H381        H  0.87633450  0.97588560  0.37652133     0.16400
H382        H  0.89275478  0.90020107  0.26218177     0.16300
C383        C  0.61193507  0.99123153  0.57230742     0.30200
C384        C  0.45685796  0.99324776  0.57054920     0.30200
C385        C  0.57722139  0.98618968  0.52136412    -0.06000
C386        C  0.56559910  0.95632453  0.59743893    -0.06800
C387        C  0.57141254  0.02964711  0.59150971    -0.06600
C388        C  0.50413231  0.99113147  0.52090913    -0.06000
C389        C  0.49136876  0.95715337  0.59555009    -0.06800
C390        C  0.49754609  0.02988882  0.59108634    -0.06600
C391        C  0.49133712  0.98894420  0.47290619    -0.32000
N392        N  0.54275380  0.97206379  0.44609637     0.14500
C393        C  0.59489397  0.96913222  0.47517349    -0.32000
H394        H  0.64206084  0.95535599  0.46356548     0.16400
C395        C  0.47159533  0.91697841  0.58871426    -0.31000
N396        N  0.52348918  0.89185010  0.59029657     0.13200
C397        C  0.58014908  0.91527091  0.59295052    -0.31000
C398        C  0.48252498  0.06981317  0.58405952    -0.31300
N399        N  0.53796890  0.09449124  0.58443415     0.13700
H400        H  0.93871721  0.08583343  0.58626260     0.16300
C401        C  0.59196797  0.07041377  0.58591597    -0.31300
H402        H  0.64344176  0.08113630  0.57799539     0.16300
H403        H  0.62965736  0.90396164  0.58308722     0.16300
H404        H  0.95190200  0.02113145  0.46350020     0.16400
H405        H  0.92647776  0.90854742  0.56844382     0.16300
C406        C  0.70514703  0.99284852  0.57834567     0.30200
C407        C  0.86164799  0.99322811  0.57501676     0.30200
C408        C  0.74923865  0.99813975  0.52891880    -0.06000
C409        C  0.74583827  0.02771836  0.60657289    -0.06800
C410        C  0.74372251  0.95517345  0.60157581    -0.06600
C411        C  0.82173534  0.99406096  0.52610595    -0.06000
C412        C  0.81993962  0.02732929  0.60514618    -0.06800
C413        C  0.81793216  0.95618399  0.60044876    -0.06600
C414        C  0.83731413  0.98984106  0.47581917    -0.32000
N415        N  0.78520566  0.00132936  0.44980634     0.14500
C416        C  0.73280712  0.00856429  0.48250089    -0.32000
H417        H  0.68688260  0.02209501  0.47337673     0.16400
C418        C  0.83752377  0.05453707  0.64147467    -0.31000
N419        N  0.78308285  0.07477344  0.66072086     0.13200
C420        C  0.72745361  0.05754870  0.64148400    -0.31000
C421        C  0.83370312  0.92871259  0.63637678    -0.31300
N422        N  0.77789264  0.90852519  0.65723779     0.13700
H423        H  0.88290614  0.92616784  0.64938606     0.16300
C424        C  0.72381070  0.92638353  0.63871420    -0.31300
H425        H  0.67284717  0.92142356  0.65437888     0.16300
H426        H  0.67655225  0.06486320  0.65418948     0.16300
H427        H  0.88042039  0.97473082  0.45937217     0.16400
H428        H  0.88648121  0.05809980  0.65521509     0.16300
O429        O  0.90354945  0.53030500  0.93378191    -0.80700
O430        O  0.61173766  0.54023552  0.81661650    -0.65400
O431        O  0.97556775  0.50529464  0.85017175    -1.12000
C432        C  0.52856156  0.38450572  0.92582215     1.06200
O433        O  0.64381527  0.47858851  0.81325257    -0.78600
O434        O  0.57057841  0.40831818  0.81391139    -0.66200
Ni435      Ni  0.91373623  0.54693327  0.86710223     1.34900
C436        C  0.51239351  0.40653757  0.79777025     0.84900
O437        O  0.48837350  0.56665891  0.79534951    -0.79100
O438        O  0.93727558  0.56847162  0.80331170    -0.89400
C439        C  0.64843981  0.51371436  0.83190438     0.84500
O440        O  0.95952694  0.59535563  0.88970338    -0.67600
O441        O  0.58581875  0.40036761  0.91151827    -0.86900
C442        C  0.49484256  0.59561982  0.90189380     0.85300
C443        C  0.42762450  0.57632605  0.78717472     1.06900
H444        H  0.54593052  0.48692371  0.90797535     0.38700
O445        O  0.53973715  0.47582671  0.87629944    -1.09500
O446        O  0.01916745  0.43043857  0.81936855    -0.66200
Ni447      Ni  0.98135255  0.45126985  0.88003519     1.26300
O448        O  0.52994227  0.56369538  0.89240345    -0.66400
O449        O  0.98907700  0.39804472  0.91203115    -0.78700
C450        C  0.92363304  0.50078456  0.95793098     0.84700
O451        O  0.94636813  0.46864468  0.94019948    -0.65900
Ni452      Ni  0.61346998  0.43999072  0.86114483     1.27400
Ni453      Ni  0.52049636  0.52397558  0.83614828     1.26100
H454        H  0.97254366  0.49972623  0.81593913     0.39300
O455        O  0.90967461  0.53487447  0.02947110    -0.80700
O456        O  0.68162795  0.54887247  0.90130417    -0.65400
O457        O  0.77795365  0.51776347  0.00609673    -1.12000
C458        C  0.83725351  0.40115910  0.89732169     1.06200
O459        O  0.65698827  0.48496474  0.91037773    -0.78600
O460        O  0.70296155  0.41031035  0.94408325    -0.66200
Ni461      Ni  0.82414853  0.55925105  0.04185620     1.34900
C462        C  0.72167946  0.40637834  0.98705255     0.84900
O463        O  0.68587984  0.57933834  0.99175790    -0.79100
O464        O  0.74013451  0.58179795  0.06057021    -0.89400
C465        C  0.66024810  0.51643665  0.88344656     0.84500
O466        O  0.83726786  0.60300647  0.99073051    -0.67600
O467        O  0.79620721  0.41708547  0.87048605    -0.86900
C468        C  0.82062465  0.60470268  0.94638436     0.85300
C469        C  0.69379448  0.59278042  0.03482664     1.06900
H470        H  0.80718048  0.49862018  0.89648980     0.38700
O471        O  0.77459721  0.48800463  0.92144640    -1.09500
O472        O  0.75300197  0.43528719  0.00731751    -0.66200
Ni473      Ni  0.82000591  0.47024196  0.97349167     1.26300
O474        O  0.79608078  0.57307418  0.92666507    -0.66400
O475        O  0.85217843  0.41779671  0.93878276    -0.78700
C476        C  0.91151249  0.50008012  0.00942728     0.84700
O477        O  0.87585117  0.46923373  0.02587586    -0.65900
Ni478      Ni  0.72265980  0.44919484  0.89085788     1.27400
Ni479      Ni  0.72921530  0.53487625  0.95506597     1.26100
H480        H  0.74432647  0.50663675  0.03004195     0.39300
C481        C  0.77741783  0.87460394  0.69323846    -0.03000
C482        C  0.71908524  0.84962789  0.70531902    -0.05600
C483        C  0.72008651  0.81531699  0.73683425    -0.20700
C484        C  0.77889976  0.80435684  0.75896040     0.25500
C485        C  0.83702196  0.82944455  0.74762291    -0.18200
C486        C  0.83649121  0.86336238  0.71539245    -0.08200
C487        C  0.77875524  0.76505730  0.78977121    -0.18500
C488        C  0.81827383  0.75771976  0.82748435    -0.23300
C489        C  0.81782188  0.71817757  0.85775527     0.27100
C490        C  0.81107313  0.67888171  0.83722984    -0.20000
C491        C  0.81533895  0.64292928  0.86544665    -0.09700
C492        C  0.82591797  0.64415435  0.91586169    -0.10200
C493        C  0.83257488  0.68353024  0.93642725    -0.03200
C494        C  0.82966129  0.71956014  0.90788052    -0.18300
H495        H  0.67246853  0.85584953  0.68947388     0.10800
H496        H  0.67414104  0.79693304  0.74374140     0.10900
H497        H  0.88395230  0.82214622  0.76246663     0.10500
H498        H  0.88338622  0.88048014  0.70784885     0.11700
H499        H  0.74176311  0.74136320  0.78183335     0.11700
H500        H  0.85109373  0.78261011  0.83848321     0.13700
H501        H  0.80357073  0.67579369  0.79889540     0.10200
H502        H  0.80942988  0.61373399  0.84748767     0.12300
H503        H  0.83922853  0.68661236  0.97490013     0.08900
H504        H  0.83574766  0.74891359  0.92545219     0.11600
C505        C  0.78599955  0.11086490  0.69259585    -0.03000
C506        C  0.74443011  0.14417127  0.68645012    -0.05600
C507        C  0.75281704  0.18118865  0.71226701    -0.20700
C508        C  0.80191567  0.18640578  0.74639819     0.25100
C509        C  0.84224339  0.15263916  0.75387153    -0.18200
C510        C  0.83491935  0.11577639  0.72709406    -0.08200
C511        C  0.81239979  0.22833457  0.76977392    -0.18500
C512        C  0.83924825  0.23644346  0.81322184    -0.23300
C513        C  0.84831573  0.27910023  0.83512671     0.27100
C514        C  0.84648718  0.28485670  0.88623159    -0.20000
C515        C  0.85139293  0.32439506  0.90746681    -0.09700
C516        C  0.85945319  0.35971538  0.87834714    -0.10200
C517        C  0.86643332  0.35343925  0.82725637    -0.03200
C518        C  0.86059611  0.31422042  0.80613021    -0.18300
H519        H  0.70710468  0.14225614  0.65990819     0.10800
H520        H  0.72104577  0.20628930  0.70489076     0.10900
H521        H  0.88129642  0.15512418  0.77903283     0.10500
H522        H  0.86827443  0.09117346  0.73306475     0.11700
H523        H  0.79422228  0.25402605  0.75041951     0.11700
H524        H  0.85226092  0.21077125  0.83497163     0.13700
H525        H  0.83802467  0.25872109  0.91006045     0.10200
H526        H  0.84405798  0.32743061  0.94662181     0.12300
H527        H  0.87199918  0.37955249  0.80315891     0.08900
H528        H  0.86472804  0.31162534  0.76685585     0.11600
C529        C  0.51851410  0.84773807  0.58999490    -0.03000
C530        C  0.57206027  0.82480084  0.60450032    -0.05600
C531        C  0.56247103  0.78332569  0.61497577    -0.20700
C532        C  0.49912015  0.76399772  0.61174216     0.25100
C533        C  0.44736330  0.78565905  0.59300634    -0.18200
C534        C  0.45705952  0.82699149  0.58193974    -0.08200
C535        C  0.48777519  0.72216880  0.63108961    -0.18500
C536        C  0.42839660  0.70928523  0.65369236    -0.23300
C537        C  0.42113295  0.67105548  0.68240726     0.27100
C538        C  0.46461044  0.63840241  0.67317823    -0.20000
C539        C  0.46430320  0.60610981  0.70600562    -0.09700
C540        C  0.41918541  0.60528265  0.74768500    -0.10200
C541        C  0.37115657  0.63565185  0.75427890    -0.03200
C542        C  0.37246068  0.66850265  0.72209529    -0.18300
H543        H  0.91307437  0.84445550  0.59275629     0.10800
H544        H  0.90683259  0.77192869  0.60714866     0.10900
H545        H  0.39876478  0.77103074  0.58814899     0.10500
H546        H  0.41496069  0.84257733  0.56907848     0.11700
H547        H  0.53197790  0.70382703  0.63263508     0.11700
H548        H  0.38629687  0.72969414  0.65652618     0.13700
H549        H  0.50047745  0.63828928  0.64159975     0.10200
H550        H  0.50078638  0.58246107  0.69968845     0.12300
H551        H  0.90839228  0.63388981  0.75756926     0.08900
H552        H  0.93172420  0.68815998  0.69790911     0.11600
C553        C  0.53710048  0.13865333  0.58484238    -0.03000
C554        C  0.47539609  0.15843813  0.59385808    -0.05600
C555        C  0.47382035  0.20019399  0.60251864    -0.20700
C556        C  0.53399746  0.22347737  0.60393528     0.25100
C557        C  0.59546118  0.20479878  0.59092949    -0.18200
C558        C  0.59713008  0.16279086  0.58148562    -0.08200
C559        C  0.53503431  0.26574378  0.62358492    -0.18500
C560        C  0.48498440  0.28005046  0.65443993    -0.23300
C561        C  0.49259626  0.31676169  0.68541992     0.27100
C562        C  0.43466879  0.33446927  0.70804989    -0.20000
C563        C  0.44035292  0.36541093  0.74290587    -0.09700
C564        C  0.50419874  0.37872745  0.75607718    -0.10200
C565        C  0.56194794  0.36168859  0.73232394    -0.03200
C566        C  0.55632645  0.33106297  0.69772592    -0.18300
H567        H  0.42758652  0.14176275  0.59696985     0.10800
H568        H  0.42509145  0.21353958  0.60983539     0.10900
H569        H  0.64265560  0.22226184  0.59080933     0.10500
H570        H  0.64564065  0.14928235  0.57374754     0.11700
H571        H  0.58155434  0.28366652  0.61668074     0.11700
H572        H  0.43805650  0.26258052  0.66117417     0.13700
H573        H  0.38488327  0.32344979  0.69982819     0.10200
H574        H  0.39498996  0.37764907  0.76085193     0.12300
H575        H  0.61206858  0.37089008  0.74177177     0.08900
H576        H  0.60221803  0.31736640  0.68292294     0.11600
C577        C  0.77738449  0.84934035  0.24447256    -0.03000
C578        C  0.71518453  0.82802279  0.25359733    -0.05600
C579        C  0.70026328  0.79273799  0.22758155    -0.20700
C580        C  0.74798143  0.77725958  0.19246162     0.25100
C581        C  0.81259309  0.79617493  0.18701256    -0.18200
C582        C  0.82719818  0.83189106  0.21264272    -0.08200
C583        C  0.73126125  0.74395506  0.15809451    -0.18500
C584        C  0.67142988  0.72324481  0.15899778    -0.23300
C585        C  0.65786235  0.69207279  0.12176599     0.27100
C586        C  0.62628933  0.65478653  0.13618430    -0.20000
C587        C  0.62567899  0.62209639  0.10345742    -0.09700
C588        C  0.65560650  0.62669690  0.05580898    -0.10200
C589        C  0.67773731  0.66568497  0.03959852    -0.03200
C590        C  0.67973174  0.69811947  0.07252433    -0.18300
H591        H  0.67628376  0.83988569  0.27893989     0.10800
H592        H  0.65014201  0.77926277  0.23381718     0.10900
H593        H  0.85079503  0.78463795  0.16075306     0.10500
H594        H  0.87566684  0.84735361  0.20466737     0.11700
H595        H  0.76991732  0.73677479  0.12951435     0.11700
H596        H  0.63295953  0.72700742  0.18852637     0.13700
H597        H  0.60810573  0.64978418  0.17383553     0.10200
H598        H  0.60978358  0.59205887  0.11701741     0.12300
H599        H  0.70185669  0.66979447  0.00324660     0.08900
H600        H  0.70202100  0.72719230  0.06017982     0.11600
C601        C  0.71683283  0.36478756  0.01046334    -0.03000
C602        C  0.70212879  0.32995795  0.98253313    -0.05600
C603        C  0.71187978  0.29040783  0.99966592    -0.20700
C604        C  0.73711466  0.28391890  0.04522396     0.25100
C605        C  0.74966196  0.31858128  0.07413814    -0.18200
C606        C  0.73983375  0.35834704  0.05693415    -0.08200
C607        C  0.74712661  0.24054979  0.06110425    -0.18500
C608        C  0.78763805  0.22915705  0.09590050    -0.23300
C609        C  0.79663099  0.18565995  0.11245487     0.27100
C610        C  0.76184305  0.15123428  0.09430753    -0.20000
C611        C  0.76832854  0.11195656  0.11393829    -0.09700
C612        C  0.81072802  0.10546381  0.15156157    -0.10200
C613        C  0.84731233  0.13943938  0.16843943    -0.03200
C614        C  0.84012022  0.17876741  0.14940700    -0.18300
H615        H  0.68588189  0.33320380  0.94620038     0.10800
H616        H  0.70119871  0.26465003  0.97641670     0.10900
H617        H  0.76737487  0.31523545  0.10996413     0.10500
H618        H  0.75253205  0.38418196  0.07945976     0.11700
H619        H  0.72064136  0.21705136  0.04167356     0.11700
H620        H  0.81618128  0.25291873  0.11358731     0.13700
H621        H  0.72793106  0.15424750  0.06591859     0.10200
H622        H  0.73892067  0.08660552  0.10041207     0.12300
H623        H  0.87874964  0.13588947  0.19833309     0.08900
H624        H  0.86719342  0.20425002  0.16481024     0.11600
C625        C  0.54479438  0.87801198  0.14848853    -0.03000
C626        C  0.59957612  0.85137266  0.14217296    -0.05600
C627        C  0.59701052  0.81522780  0.11308799    -0.20700
C628        C  0.54049123  0.80363326  0.08731281     0.25100
C629        C  0.07405108  0.81020210  0.12178006    -0.18200
C630        C  0.08211204  0.84503875  0.15228766    -0.08200
C631        C  0.53703382  0.76103368  0.06205016    -0.18500
C632        C  0.03481961  0.73318309  0.05624492    -0.23300
C633        C  0.02658076  0.69804547  0.01959503     0.27100
C634        C  0.04502452  0.65811287  0.03155955    -0.20000
C635        C  0.04112919  0.62474186  0.99870161    -0.09700
C636        C  0.51780647  0.63371532  0.93072290    -0.10200
C637        C  0.52499843  0.67244242  0.90804128    -0.03200
C638        C  0.53079618  0.70954545  0.93502944    -0.18300
H639        H  0.64448746  0.85770091  0.16097241     0.10800
H640        H  0.64007853  0.79584895  0.11093907     0.10900
H641        H  0.10844045  0.78561156  0.12387566     0.10500
H642        H  0.12133055  0.84527273  0.17738730     0.11700
H643        H  0.54755704  0.73536155  0.08456333     0.11700
H644        H  0.05781225  0.72561238  0.08924884     0.13700
H645        H  0.06162282  0.65235411  0.06718503     0.10200
H646        H  0.05529946  0.59489036  0.01016787     0.12300
H647        H  0.52348691  0.67427468  0.86892277     0.08900
H648        H  0.53488467  0.73799569  0.91505579     0.11600
C649        C  0.52689186  0.34810097  0.96021100    -0.03000
C650        C  0.97452107  0.33958047  0.99888053    -0.05600
C651        C  0.97256397  0.30791657  0.03368975    -0.20700
C652        C  0.02174141  0.27761501  0.03188789     0.25100
C653        C  0.52060908  0.27376983  0.97455333    -0.18200
C654        C  0.51935206  0.30779826  0.94305055    -0.08200
C655        C  0.01968527  0.24625411  0.07271135    -0.18500
C656        C  0.55227087  0.23782026  0.10264689    -0.23300
C657        C  0.54979861  0.19996286  0.13556556     0.27100
C658        C  0.51126372  0.16388511  0.12750545    -0.20000
C659        C  0.50934009  0.13045396  0.16023500    -0.09700
C660        C  0.54635096  0.13124086  0.20208777    -0.10200
C661        C  0.02222404  0.16045250  0.20109982    -0.03200
C662        C  0.02207670  0.19010736  0.16392632    -0.18300
H663        H  0.93768906  0.36321062  0.00319601     0.10800
H664        H  0.93325503  0.30787202  0.06320040     0.10900
H665        H  0.51356550  0.24350327  0.95948305     0.10500
H666        H  0.51249027  0.30253893  0.90491842     0.11700
H667        H  0.97651527  0.24726995  0.09919129     0.11700
H668        H  0.57585846  0.26514757  0.11693469     0.13700
H669        H  0.48177444  0.16132010  0.09624679     0.10200
H670        H  0.47967338  0.10341025  0.15215443     0.12300
H671        H  0.98668432  0.16268713  0.23272337     0.08900
H672        H  0.98744589  0.21471681  0.16907687     0.11600
loop_ 
_geom_bond_atom_site_label_1 
_geom_bond_atom_site_label_2 
_geom_bond_distance 
_geom_bond_site_symmetry_2 
_ccdc_geom_bond_type 
C1            C3   1.570       .  S
C1            C5   1.612       .  S
C1            C4   1.610   1_565  S
C1           C24   1.865       .  S
C2            C6   1.601       .  S
C2            C8   1.603       .  S
C2            C7   1.591   1_565  S
C2           C25   1.862       .  S
C3           C11   1.373       .  A
C3          C342   1.468       .  A
C4           C15   1.396       .  A
C4          C343   1.465       .  A
C5           C19   1.408       .  A
C5          C344   1.469       .  A
C6            C9   1.391       .  A
C6          C339   1.462       .  A
C7           C13   1.392       .  A
C7          C340   1.462       .  A
C8           C16   1.404       .  A
C8          C341   1.469       .  A
C9           H22   1.076       .  S
C9          N346   1.366       .  A
N10          C11   1.345       .  A
N10         C345   1.357   1_455  A
N10          N56   1.419       .  S
C11          H12   1.078       .  S
C13          H23   1.078       .  S
C13          N14   1.360       .  A
N14         C351   1.367       .  A
N14         C660   1.472       .  S
C15          H21   1.077       .  S
C15         N350   1.363       .  A
C16          H18   1.080       .  S
C16          N17   1.373       .  A
N17         C355   1.384       .  A
N17         C625   1.500       .  S
C19          H20   1.081       .  S
C19         N353   1.376       .  A
C24          C26   1.632   1_565  S
C24          C28   1.574   1_565  S
C24          C27   1.564       .  S
C25          C29   1.600   1_565  S
C25          C31   1.592   1_565  S
C25          C30   1.587       .  S
C26          C34   1.418       .  A
C26          C29   1.478       .  A
C27          C38   1.364       .  A
C27          C30   1.467       .  A
C28          C42   1.376       .  A
C28          C31   1.459       .  A
C29          C32   1.395       .  A
C30          C36   1.382       .  A
C31          C39   1.391       .  A
C32          H45   1.073       .  S
C32          N33   1.360       .  A
N33          C34   1.368       .  A
N33          N79   1.444       .  S
C34          H35   1.073       .  S
C36          H46   1.082       .  S
C36          N37   1.363       .  A
N37          C38   1.356       .  A
N37         C241   1.436       .  S
C38          H44   1.082       .  S
C39          H41   1.075       .  S
C39          N40   1.360       .  A
N40          C42   1.352       .  A
N40         C276   1.448       .  S
C42          H43   1.076       .  S
C47          C49   1.612       .  S
C47          C51   1.569   1_565  S
C47          C50   1.569       .  S
C47          C70   1.878       .  S
C48          C52   1.588   1_655  S
C48          C54   1.584   1_565  S
C48          C53   1.580       .  S
C48         C407   1.890       .  S
C49          C57   1.398       .  A
C49          C52   1.471       .  A
C50          C61   1.384       .  A
C50          C53   1.481   1_455  A
C51          C65   1.372       .  A
C51          C54   1.479   1_455  A
C52          C55   1.365   1_465  A
C53          C59   1.380       .  A
C54          C62   1.396       .  A
C55         H404   1.071       .  S
C55          N56   1.349   1_645  A
N56          C57   1.361       .  A
C57          H58   1.079       .  S
C59         H405   1.079       .  S
C59          N60   1.348   1_655  A
N60          C61   1.350       .  A
N60         C193   1.446       .  S
C61          H67   1.076       .  S
C62         H400   1.080       .  S
C62          N63   1.352   1_655  A
N63          C65   1.345       .  A
N63         C217   1.446       .  S
H64         C398   1.079       .  S
C65          H66   1.075       .  S
H68         C391   1.071   1_545  S
H69         C395   1.076       .  S
C70          C72   1.580   1_565  S
C70          C74   1.637       .  S
C70          C73   1.625   1_565  S
C71          C75   1.616       .  S
C71          C77   1.605       .  S
C71          C76   1.620   1_565  S
C71         C384   1.886       .  S
C72          C80   1.408       .  A
C72          C75   1.441   1_545  A
C73          C84   1.412       .  A
C73          C76   1.472       .  A
C74          C88   1.429       .  A
C74          C77   1.471       .  A
C75          C78   1.402       .  A
C76          C82   1.410       .  A
C77          C85   1.412       .  A
C78          H91   1.069       .  S
C78          N79   1.362   1_565  A
N79          C80   1.358       .  A
C80          H81   1.077       .  S
C82          H92   1.077       .  S
C82          N83   1.368       .  A
N83          C84   1.372       .  A
N83         C169   1.490       .  S
C84          H90   1.079       .  S
C85          H87   1.075       .  S
C85          N86   1.363       .  A
N86          C88   1.377       .  A
N86         C145   1.502       .  S
C88          H89   1.080       .  S
O93         Ni99   1.903       .  S
O93         C114   1.269       .  A
O94        Ni117   1.900       .  S
O94         C103   1.240       .  A
O95         Ni99   1.899       .  S
O95        Ni111   1.969       .  S
O95        Ni453   1.846       .  S
O95         H118   0.965       .  S
C96         O105   1.268       .  A
C96         O449   1.284   1_455  A
C96         C313   1.510       .  S
O97        Ni116   1.863       .  S
O97         C103   1.264       .  A
O98        Ni116   1.923       .  S
O98         C100   1.279       .  A
Ni99        O102   1.908       .  S
Ni99        O104   1.935       .  S
C100        O446   1.276       .  A
C100        C228   1.476       .  S
O101       Ni117   1.946       .  S
O101        C107   1.292   1_455  A
O102        C443   1.288       .  A
C103        C129   1.494       .  S
O104        C442   1.259       .  A
O105       Ni116   1.916       .  S
C106        O112   1.280       .  A
C106        O440   1.256   1_455  A
C106        C300   1.529       .  S
C107        O438   1.290       .  A
C107        C204   1.475   1_655  S
H108        O109   0.953       .  S
O109       Ni117   2.005       .  S
O109       Ni116   1.929       .  S
O109       Ni447   1.877   1_455  S
O110       Ni111   1.930       .  S
O110        C436   1.278       .  A
Ni111       O115   1.837       .  S
Ni111       O113   1.987       .  S
Ni111       O445   1.886       .  S
O112       Ni117   2.004       .  S
O113        C432   1.286       .  A
C114        O115   1.243       .  A
C114        C140   1.411   1_556  S
Ni117       O431   1.840   1_455  S
O119       Ni125   1.913       .  S
O119        C140   1.265       .  A
O120       Ni143   1.882   1_556  S
O120        C129   1.229       .  A
O121       Ni125   1.945       .  S
O121       Ni143   1.870       .  S
O121       Ni137   1.991   1_554  S
O121        H144   0.967       .  S
C122        O139   1.322       .  A
C122        O131   1.264       .  A
C122        C180   1.547       .  S
O123       Ni142   1.819       .  S
O123        C129   1.274       .  A
O124       Ni142   1.948   1_554  S
O124        C126   1.279       .  A
Ni125       O128   1.893       .  S
Ni125       O130   2.021       .  S
C126        O136   1.273       .  A
C126        C265   1.508       .  S
O127       Ni143   1.929       .  S
O127        C133   1.273       .  A
O128        C133   1.267       .  A
O130        C132   1.296   1_554  A
O131       Ni142   1.870       .  S
C132        O138   1.276       .  A
C132        C156   1.571       .  S
C133        C252   1.457       .  S
H134        O135   0.966       .  S
O135       Ni143   2.029   1_556  S
O135       Ni137   1.853       .  S
O135       Ni142   1.887       .  S
O136       Ni137   1.919   1_554  S
Ni137       O141   1.899   1_556  S
Ni137       O139   2.087       .  S
O138       Ni143   1.953   1_556  S
C140        O141   1.279       .  A
C145        C146   1.429       .  A
C145        C150   1.417       .  A
C146        C147   1.439       .  A
C146        H159   1.081       .  S
C147        C148   1.420       .  A
C147        H160   1.082       .  S
C148        C149   1.424       .  A
C148        C151   1.572       .  S
C149        C150   1.433       .  A
C149        H161   1.083       .  S
C150        H162   1.082       .  S
C151        C152   1.392       .  D
C151        H163   1.085       .  S
C152        C153   1.572       .  S
C152        H164   1.085       .  S
C153        C154   1.419       .  A
C153        C158   1.424       .  A
C154        C155   1.439       .  A
C154        H165   1.082       .  S
C155        C156   1.429       .  A
C155        H166   1.082       .  S
C156        C157   1.415       .  A
C157        C158   1.435       .  A
C157        H167   1.080       .  S
C158        H168   1.083       .  S
C169        C170   1.414       .  A
C169        C174   1.424       .  A
C170        C171   1.422       .  A
C170        H183   1.082       .  S
C171        C172   1.418       .  A
C171        H184   1.083       .  S
C172        C173   1.418       .  A
C172        C175   1.552       .  S
C173        C174   1.434       .  A
C173        H185   1.082       .  S
C174        H186   1.082       .  S
C175        C176   1.383       .  D
C175        H187   1.085       .  S
C176        C177   1.553       .  S
C176        H188   1.085       .  S
C177        C178   1.409       .  A
C177        C182   1.425       .  A
C178        C179   1.419       .  A
C178        H189   1.082       .  S
C179        C180   1.427       .  A
C179        H190   1.083       .  S
C180        C181   1.412       .  A
C181        C182   1.435       .  A
C181        H191   1.082       .  S
C182        H192   1.082       .  S
C193        C194   1.409   1_455  A
C193        C198   1.411       .  A
C194        C195   1.391       .  A
C194        H543   1.080       .  S
C195        C196   1.398   1_655  A
C195        H544   1.084       .  S
C196        C197   1.405       .  A
C196        C199   1.477       .  S
C197        C198   1.399       .  A
C197        H209   1.082       .  S
C198        H210   1.080       .  S
C199        C200   1.344       .  D
C199        H211   1.087   1_455  S
C200        C201   1.479       .  S
C200        H212   1.086       .  S
C201        C202   1.400       .  A
C201        C206   1.408   1_455  A
C202        C203   1.397       .  A
C202        H213   1.083       .  S
C203        C204   1.407       .  A
C203        H214   1.083       .  S
C204        C205   1.403   1_455  A
C205        C206   1.396       .  A
C205        H551   1.083       .  S
C206        H552   1.083       .  S
H207        C530   1.080       .  S
H208        C531   1.084       .  S
H215        C541   1.081       .  S
H216        C542   1.084       .  S
C217        C218   1.408   1_455  A
C217        C222   1.409       .  A
C218        C219   1.402   1_655  A
C218        H231   1.083       .  S
C219        C220   1.409       .  A
C219        H232   1.082   1_455  S
C220        C221   1.399       .  A
C220        C223   1.483       .  S
C221        C222   1.393       .  A
C221        H233   1.084       .  S
C222        H234   1.080       .  S
C223        C224   1.343       .  D
C223        H235   1.086       .  S
C224        C225   1.486       .  S
C224        H236   1.086   1_455  S
C225        C226   1.402       .  A
C225        C230   1.409       .  A
C226        C227   1.397       .  A
C226        H237   1.083   1_455  S
C227        C228   1.406       .  A
C227        H238   1.083   1_455  S
C228        C229   1.404       .  A
C229        C230   1.396       .  A
C229        H239   1.084       .  S
C230        H240   1.081       .  S
C241        C242   1.407       .  A
C241        C246   1.403       .  A
C242        C243   1.394       .  A
C242        H255   1.083       .  S
C243        C244   1.399       .  A
C243        H256   1.083       .  S
C244        C245   1.402       .  A
C244        C247   1.468       .  S
C245        C246   1.397       .  A
C245        H257   1.084       .  S
C246        H258   1.083       .  S
C247        C248   1.344       .  D
C247        H259   1.087       .  S
C248        C249   1.469       .  S
C248        H260   1.088       .  S
C249        C250   1.401       .  A
C249        C254   1.402       .  A
C250        C251   1.394       .  A
C250        H261   1.083       .  S
C251        C252   1.404       .  A
C251        H262   1.084       .  S
C252        C253   1.397       .  A
C253        C254   1.394       .  A
C253        H263   1.084       .  S
C254        H264   1.080       .  S
C265        C266   1.411       .  A
C265        C270   1.410       .  A
C266        C267   1.412       .  A
C266        H279   1.081       .  S
C267        C268   1.410       .  A
C267        H280   1.079       .  S
C268        C269   1.408       .  A
C268        C271   1.512       .  S
C269        C270   1.408       .  A
C269        H281   1.083       .  S
C270        H282   1.083       .  S
C271        C272   1.359       .  D
C271        H283   1.085       .  S
C272        C273   1.511       .  S
C272        H284   1.085       .  S
C273        C274   1.412       .  A
C273        C278   1.410       .  A
C274        C275   1.410       .  A
C274        H285   1.083       .  S
C275        C276   1.401       .  A
C275        H286   1.082       .  S
C276        C277   1.408       .  A
C277        C278   1.407       .  A
C277        H287   1.083       .  S
C278        H288   1.081       .  S
C289        C290   1.414   1_455  A
C289        C630   1.417       .  A
C289        N353   1.480       .  S
C290        C291   1.416       .  A
C290        H303   1.082       .  S
C291        C292   1.413   1_655  A
C291        H304   1.083       .  S
C292        C629   1.417       .  A
C292        C295   1.538       .  S
C293        C294   1.438       .  A
C293        C628   1.420       .  A
C293        H305   1.083       .  S
C294        C625   1.427       .  A
C294        H306   1.082       .  S
C295        C632   1.373       .  D
C295        H307   1.084   1_455  S
C296        C297   1.565   1_554  S
C296        C631   1.385       .  D
C296        H308   1.086   1_554  S
C297        C298   1.421   1_556  A
C297        C638   1.421       .  A
C298        C299   1.439   1_554  A
C298        H309   1.081       .  S
C299        C636   1.421       .  A
C299        H310   1.080   1_556  S
C300        C301   1.417   1_455  A
C300        C635   1.408       .  A
C301        C302   1.421   1_655  A
C301        H311   1.083       .  S
C302        C633   1.414   1_556  A
C302        H312   1.081   1_455  S
C313        C318   1.412       .  A
C313        C650   1.407   1_455  A
C314        C315   1.424       .  A
C314        C649   1.415   1_554  A
C314        H327   1.083       .  S
C315        C316   1.416       .  A
C315        H328   1.081       .  S
C316        C653   1.416   1_554  A
C316        C319   1.538       .  S
C317        C318   1.414       .  A
C317        C652   1.413   1_556  A
C317        H329   1.080       .  S
C318        H330   1.083       .  S
C319        C656   1.373       .  D
C319        H331   1.084       .  S
C320        C321   1.523       .  S
C320        C655   1.366       .  D
C320        H332   1.083       .  S
C321        C322   1.411       .  A
C321        C662   1.414       .  A
C322        C323   1.411       .  A
C322        H333   1.083       .  S
C323        C324   1.410       .  A
C323        H334   1.082       .  S
C324        C661   1.410       .  A
C324        N350   1.463       .  S
C325        C326   1.420       .  A
C325        C660   1.408       .  A
C325        H335   1.082       .  S
C326        C657   1.418       .  A
C326        H336   1.083       .  S
C337        C339   1.577       .  S
C337        C341   1.639       .  S
C337        C340   1.610   1_565  S
C337        C360   1.877       .  S
C338        C342   1.604   1_655  S
C338        C344   1.603   1_655  S
C338        C343   1.584   1_665  S
C338        C361   1.886       .  S
C339        C347   1.385       .  A
C340        C351   1.405       .  A
C341        C355   1.419       .  A
C342        C345   1.394   1_455  A
C343        C349   1.387       .  A
C344        C352   1.391   1_455  A
C345        H358   1.075   1_565  S
N346        C347   1.351       .  A
N346        N392   1.427       .  S
C347        H348   1.073       .  S
C349        H359   1.076   1_455  S
C349        N350   1.358       .  A
C351        H357   1.076       .  S
C352        H354   1.079       .  S
C352        N353   1.367   1_655  A
C355        H356   1.080       .  S
C360        C362   1.633   1_565  S
C360        C364   1.581   1_565  S
C360        C363   1.569       .  S
C361        C365   1.585   1_565  S
C361        C367   1.606   1_565  S
C361        C366   1.588       .  S
C362        C370   1.414       .  A
C362        C365   1.480       .  A
C363        C374   1.362       .  A
C363        C366   1.467       .  A
C364        C378   1.384       .  A
C364        C367   1.466       .  A
C365        C368   1.386   1_545  A
C366        C372   1.384       .  A
C367        C375   1.396       .  A
C368        H381   1.071       .  S
C368        N369   1.345   1_565  A
N369        C370   1.367       .  A
N369        N415   1.436       .  S
C370        H371   1.079       .  S
C372        H382   1.080       .  S
C372        N373   1.364       .  A
N373        C374   1.355       .  A
N373        C577   1.443       .  S
C374        H380   1.078       .  S
C375        H377   1.076       .  S
C375        N376   1.364       .  A
N376        C378   1.356       .  A
N376        C612   1.459       .  S
C378        H379   1.076       .  S
C383        C385   1.618       .  S
C383        C387   1.584   1_565  S
C383        C386   1.574       .  S
C383        C406   1.874       .  S
C384        C388   1.601       .  S
C384        C390   1.556   1_565  S
C384        C389   1.575       .  S
C385        C393   1.412       .  A
C385        C388   1.469       .  A
C386        C397   1.389       .  A
C386        C389   1.483       .  A
C387        C401   1.391       .  A
C387        C390   1.471       .  A
C388        C391   1.368       .  A
C389        C395   1.378       .  A
C390        C398   1.370       .  A
C391        N392   1.346       .  A
N392        C393   1.366       .  A
C393        H394   1.080       .  S
C395        N396   1.345       .  A
N396        C397   1.350       .  A
N396        C529   1.446       .  S
C397        H403   1.078       .  S
C398        N399   1.347       .  A
N399        C401   1.357       .  A
N399        C553   1.448       .  S
C401        H402   1.078       .  S
C406        C408   1.569       .  S
C406        C410   1.634       .  S
C406        C409   1.612   1_565  S
C407        C411   1.618       .  S
C407        C413   1.602       .  S
C407        C412   1.603   1_565  S
C408        C416   1.392   1_565  A
C408        C411   1.449       .  A
C409        C420   1.405       .  A
C409        C412   1.472       .  A
C410        C424   1.420       .  A
C410        C413   1.473       .  A
C411        C414   1.404       .  A
C412        C418   1.395       .  A
C413        C421   1.402       .  A
C414        H427   1.073       .  S
C414        N415   1.369   1_565  A
N415        C416   1.350       .  A
C416        H417   1.076       .  S
C418        H428   1.075       .  S
C418        N419   1.359       .  A
N419        C420   1.369       .  A
N419        C505   1.473       .  S
C420        H426   1.079       .  S
C421        H423   1.074       .  S
C421        N422   1.363       .  A
N422        C424   1.375       .  A
N422        C481   1.493       .  S
C424        H425   1.078       .  S
O429       Ni435   1.913       .  S
O429        C450   1.270       .  A
O430       Ni453   1.912       .  S
O430        C439   1.249       .  A
O431       Ni435   1.899       .  S
O431       Ni447   1.967       .  S
O431        H454   0.966       .  S
C432        O441   1.271       .  A
C432        C649   1.525       .  S
O433       Ni452   1.884       .  S
O433        C439   1.262       .  A
O434       Ni452   1.899       .  S
O434        C436   1.272       .  A
Ni435       O438   1.916       .  S
Ni435       O440   1.930       .  S
C436        C564   1.479       .  S
O437       Ni453   1.953       .  S
O437        C443   1.296       .  A
C439        C465   1.460       .  S
O441       Ni452   1.941       .  S
C442        O448   1.291       .  A
C442        C636   1.552       .  S
C443        C540   1.471       .  S
H444        O445   0.960       .  S
O445       Ni453   1.996       .  S
O445       Ni452   1.928       .  S
O446       Ni447   1.911   1_455  S
Ni447       O451   1.842       .  S
Ni447       O449   1.974       .  S
O448       Ni453   2.036       .  S
C450        O451   1.243       .  A
C450        C476   1.421   1_556  S
O455       Ni461   1.909       .  S
O455        C476   1.265       .  A
O456       Ni479   1.886       .  S
O456        C465   1.246       .  A
O457       Ni461   1.927       .  S
O457       Ni479   1.868   1_554  S
O457       Ni473   1.972   1_554  S
O457        H480   0.966       .  S
C458        O475   1.315       .  A
C458        O467   1.270       .  A
C458        C516   1.520       .  S
O459       Ni478   1.831       .  S
O459        C465   1.271       .  A
O460       Ni478   1.956       .  S
O460        C462   1.277       .  A
Ni461       O464   1.883       .  S
Ni461       O466   2.012   1_554  S
C462        O472   1.269   1_556  A
C462        C601   1.508   1_556  S
O463       Ni479   1.955       .  S
O463        C469   1.284   1_556  A
O464        C469   1.269       .  A
O466        C468   1.293       .  A
O467       Ni478   1.879       .  S
C468        O474   1.270       .  A
C468        C492   1.542       .  S
C469        C588   1.459       .  S
H470        O471   0.966       .  S
O471       Ni479   1.995       .  S
O471       Ni473   1.859       .  S
O471       Ni478   1.854       .  S
O472       Ni473   1.917   1_554  S
Ni473       O477   1.890   1_556  S
Ni473       O475   2.059       .  S
O474       Ni479   1.921       .  S
C476        O477   1.280       .  A
C481        C482   1.417       .  A
C481        C486   1.425       .  A
C482        C483   1.426       .  A
C482        H495   1.081       .  S
C483        C484   1.418       .  A
C483        H496   1.083       .  S
C484        C485   1.412       .  A
C484        C487   1.546       .  S
C485        C486   1.427       .  A
C485        H497   1.082       .  S
C486        H498   1.079       .  S
C487        C488   1.378       .  D
C487        H499   1.086       .  S
C488        C489   1.544       .  S
C488        H500   1.085       .  S
C489        C490   1.411       .  A
C489        C494   1.420       .  A
C490        C491   1.424       .  A
C490        H501   1.082       .  S
C491        C492   1.422       .  A
C491        H502   1.083       .  S
C492        C493   1.414       .  A
C493        C494   1.428       .  A
C493        H503   1.083       .  S
C494        H504   1.083       .  S
C505        C506   1.409       .  A
C505        C510   1.418       .  A
C506        C507   1.416       .  A
C506        H519   1.083       .  S
C507        C508   1.414       .  A
C507        H520   1.083       .  S
C508        C509   1.413       .  A
C508        C511   1.530       .  S
C509        C510   1.422       .  A
C509        H521   1.082       .  S
C510        H522   1.082       .  S
C511        C512   1.370       .  D
C511        H523   1.086       .  S
C512        C513   1.531       .  S
C512        H524   1.085       .  S
C513        C514   1.418       .  A
C513        C518   1.408       .  A
C514        C515   1.423       .  A
C514        H525   1.083       .  S
C515        C516   1.410       .  A
C515        H526   1.082       .  S
C516        C517   1.419       .  A
C517        C518   1.414       .  A
C517        H527   1.083       .  S
C518        H528   1.082       .  S
C529        C530   1.408       .  A
C529        C534   1.412       .  A
C530        C531   1.395       .  A
C531        C532   1.401       .  A
C532        C533   1.402       .  A
C532        C535   1.478       .  S
C533        C534   1.394       .  A
C533        H545   1.083       .  S
C534        H546   1.079       .  S
C535        C536   1.348       .  D
C535        H547   1.085       .  S
C536        C537   1.482       .  S
C536        H548   1.087       .  S
C537        C538   1.408       .  A
C537        C542   1.404       .  A
C538        C539   1.395       .  A
C538        H549   1.081       .  S
C539        C540   1.401       .  A
C539        H550   1.083       .  S
C540        C541   1.403       .  A
C541        C542   1.397       .  A
C553        C554   1.411       .  A
C553        C558   1.408       .  A
C554        C555   1.389       .  A
C554        H567   1.079       .  S
C555        C556   1.402       .  A
C555        H568   1.081       .  S
C556        C557   1.406       .  A
C556        C559   1.485       .  S
C557        C558   1.401       .  A
C557        H569   1.083       .  S
C558        H570   1.080       .  S
C559        C560   1.352       .  D
C559        H571   1.084       .  S
C560        C561   1.483       .  S
C560        H572   1.083       .  S
C561        C562   1.408       .  A
C561        C566   1.403       .  A
C562        C563   1.402       .  A
C562        H573   1.083       .  S
C563        C564   1.404       .  A
C563        H574   1.082       .  S
C564        C565   1.407       .  A
C565        C566   1.389       .  A
C565        H575   1.083       .  S
C566        H576   1.081       .  S
C577        C578   1.407       .  A
C577        C582   1.405       .  A
C578        C579   1.394       .  A
C578        H591   1.082       .  S
C579        C580   1.406       .  A
C579        H592   1.079       .  S
C580        C581   1.406       .  A
C580        C583   1.489       .  S
C581        C582   1.399       .  A
C581        H593   1.084       .  S
C582        H594   1.082       .  S
C583        C584   1.350       .  D
C583        H595   1.087       .  S
C584        C585   1.478       .  S
C584        H596   1.082       .  S
C585        C586   1.401       .  A
C585        C590   1.405       .  A
C586        C587   1.398       .  A
C586        H597   1.083       .  S
C587        C588   1.406       .  A
C587        H598   1.084       .  S
C588        C589   1.402       .  A
C589        C590   1.396       .  A
C589        H599   1.084       .  S
C590        H600   1.083       .  S
C601        C602   1.410   1_554  A
C601        C606   1.412       .  A
C602        C603   1.406       .  A
C602        H615   1.083       .  S
C603        C604   1.408   1_556  A
C603        H616   1.083       .  S
C604        C605   1.412       .  A
C604        C607   1.513       .  S
C605        C606   1.414       .  A
C605        H617   1.081       .  S
C606        H618   1.083       .  S
C607        C608   1.361       .  D
C607        H619   1.082       .  S
C608        C609   1.519       .  S
C608        H620   1.085       .  S
C609        C610   1.414       .  A
C609        C614   1.411       .  A
C610        C611   1.413       .  A
C610        H621   1.079       .  S
C611        C612   1.408       .  A
C611        H622   1.082       .  S
C612        C613   1.408       .  A
C613        C614   1.410       .  A
C613        H623   1.082       .  S
C614        H624   1.082       .  S
C625        C626   1.418       .  A
C626        C627   1.429       .  A
C626        H639   1.081       .  S
C627        C628   1.417       .  A
C627        H640   1.081       .  S
C628        C631   1.559       .  S
C629        C630   1.427       .  A
C629        H641   1.079       .  S
C630        H642   1.082       .  S
C631        H643   1.083       .  S
C632        C633   1.542       .  S
C632        H644   1.083       .  S
C633        C634   1.418       .  A
C634        C635   1.421   1_554  A
C634        H645   1.080       .  S
C635        H646   1.082   1_556  S
C636        C637   1.416       .  A
C637        C638   1.429       .  A
C637        H647   1.083       .  S
C638        H648   1.083       .  S
C649        C654   1.409       .  A
C650        C651   1.414   1_556  A
C650        H663   1.083   1_556  S
C651        C652   1.415   1_655  A
C651        H664   1.083       .  S
C652        C655   1.525       .  S
C653        C654   1.419       .  A
C653        H665   1.083       .  S
C654        H666   1.083       .  S
C655        H667   1.084   1_455  S
C656        C657   1.538       .  S
C656        H668   1.084       .  S
C657        C658   1.415       .  A
C658        C659   1.420       .  A
C658        H669   1.081       .  S
C659        C660   1.416       .  A
C659        H670   1.081       .  S
C661        C662   1.416       .  A
C661        H671   1.082   1_455  S
C662        H672   1.079   1_455  S
