geometry optimzed in LAMMPS
_audit_creation_date              2020-11-30 
_audit_creation_method            'lammps2cif' 
_symmetry_space_group_name_H-M    'P1' 
_symmetry_Int_Tables_number       1 
_symmetry_cell_setting            triclinic 
loop_ 
_symmetry_equiv_pos_as_xyz 
  x,y,z 
_cell_length_a                    43.37909642 
_cell_length_b                    43.527381845596786 
_cell_length_c                    43.252695429434795 
_cell_angle_alpha                 90.02139475295867 
_cell_angle_beta                  90.15910314585554 
_cell_angle_gamma                 89.965055341645 
loop_ 
_atom_site_label 
_atom_site_type_symbol 
_atom_site_fract_x 
_atom_site_fract_y 
_atom_site_fract_z 
_atom_site_charge 
O1          O  0.17730103  0.71756452  0.53564491    -0.78300
C2          C  0.21133785  0.80527554  0.54033961     0.82800
O3          O  0.22458687  0.70718186  0.44962196    -0.79400
O4          O  0.29212927  0.78788219  0.51228623    -0.80900
O5          O  0.27487920  0.69285152  0.56742961    -0.80700
O6          O  0.20432994  0.67368362  0.53584091    -0.79300
Zn7        Zn  0.20405845  0.74473480  0.50985439     1.55700
O8          O  0.29977599  0.73695126  0.56368882    -0.80700
Cd9        Cd  0.24860953  0.69008940  0.52826253     1.59700
Cd10       Cd  0.26211703  0.73091800  0.47153974     1.59600
O11         O  0.27679035  0.66320082  0.50062911    -0.80700
O12         O  0.24544655  0.73266777  0.51325626    -1.91200
Cd13       Cd  0.26595230  0.76221001  0.54038998     1.59900
O14         O  0.29844659  0.70055984  0.47332104    -0.80600
O15         O  0.23458633  0.79610587  0.55641768    -0.79300
C16         C  0.19619184  0.71391875  0.45416280     0.83200
C17         C  0.17940569  0.68873405  0.54034139     0.82900
O18         O  0.19928602  0.78845837  0.51967984    -0.78300
C19         C  0.30014756  0.70762565  0.56556533     0.83700
O20         O  0.18954527  0.73898056  0.46737655    -0.78300
C21         C  0.29890243  0.67335500  0.48414282     0.83800
C22         C  0.29588555  0.79218057  0.48355605     0.84200
O23         O  0.28272524  0.77489061  0.46313481    -0.80800
O24         O  0.80568952  0.78259804  0.02115293    -0.78300
C25         C  0.81722153  0.67955438  0.03723784     0.82800
O26         O  0.77551879  0.70547910  0.94801112    -0.79400
O27         O  0.71661901  0.66576348  0.99937204    -0.80900
O28         O  0.70459389  0.73727565  0.06668756    -0.80700
O29         O  0.76701427  0.79670399  0.05161659    -0.79300
Zn30       Zn  0.79790598  0.73955073  0.01090933     1.55700
O31         O  0.73069382  0.69392094  0.06774674    -0.80700
Cd32       Cd  0.73576518  0.76167709  0.03917161     1.59700
Cd33       Cd  0.73979594  0.73177866  0.96968399     1.59600
O34         O  0.70774540  0.78688974  0.01176890    -0.80700
O35         O  0.75542348  0.73114926  0.01210586    -1.91200
Cd36       Cd  0.74974537  0.68829451  0.02546866     1.59900
O37         O  0.72117564  0.77686902  0.96281904    -0.80600
O38         O  0.79193962  0.66687953  0.02919216    -0.79300
C39         C  0.80355099  0.71047586  0.95560902     0.83200
C40         C  0.79197487  0.80289804  0.03699582     0.82900
O41         O  0.82141966  0.70852767  0.03588946    -0.78300
C42         C  0.70502094  0.70790235  0.06730784     0.83700
O43         O  0.81012415  0.73603890  0.96765207    -0.78300
C44         C  0.70643620  0.79298599  0.98310466     0.83800
C45         C  0.69791961  0.67716616  0.97964318     0.84200
O46         O  0.70216608  0.70371722  0.96817454    -0.80800
O47         O  0.26758573  0.50203669  0.18991981    -0.78300
C48         C  0.16221932  0.49472856  0.18342004     0.82800
O49         O  0.19737708  0.58205230  0.22460346    -0.79400
O50         O  0.15722742  0.52313983  0.28620677    -0.80900
O51         O  0.22655414  0.46253631  0.29598338    -0.80700
O52         O  0.28240555  0.47267503  0.22943937    -0.79300
Zn53       Zn  0.22597766  0.51718140  0.19974994     1.55700
O54         O  0.18296952  0.45735930  0.27033581    -0.80700
Cd55       Cd  0.24967260  0.48737434  0.26181414     1.59700
Cd56       Cd  0.22122162  0.55676879  0.25956098     1.59600
O57         O  0.27689961  0.51443028  0.28754387    -0.80700
O58         O  0.21938639  0.51474806  0.24266756    -1.91200
Cd59       Cd  0.17773090  0.49954716  0.25107178     1.59900
O60         O  0.26661313  0.56355354  0.27667531    -0.80600
O61         O  0.15282024  0.49775733  0.21112700    -0.79300
C62         C  0.20293776  0.57560139  0.19633811     0.83200
C63         C  0.28783298  0.48569700  0.20340250     0.82900
O64         O  0.19057076  0.49803051  0.17629207    -0.78300
C65         C  0.19752527  0.45767117  0.29585025     0.83700
O66         O  0.22744390  0.56125558  0.19009994    -0.78300
C67         C  0.28319913  0.54273635  0.28987243     0.83800
C68         C  0.16944141  0.54222723  0.30481702     0.84200
O69         O  0.19450907  0.55599043  0.29847690    -0.80800
O70         O  0.47034465  0.20456063  0.26166173    -0.78300
C71         C  0.44054229  0.20941313  0.16160121     0.82800
O72         O  0.54527799  0.23358165  0.19584766    -0.79400
O73         O  0.48148463  0.30734992  0.15629487    -0.80900
O74         O  0.42762156  0.31394987  0.23724096    -0.80700
O75         O  0.44691488  0.24264316  0.28640522    -0.79300
Zn76       Zn  0.47128818  0.21893226  0.21835284     1.55700
O77         O  0.41699684  0.28954792  0.19435461    -0.80700
Cd78       Cd  0.45486067  0.27727076  0.25305264     1.59700
Cd79       Cd  0.52180799  0.27272040  0.21577308     1.59600
O80         O  0.48565596  0.30069147  0.27728995    -0.80700
O81         O  0.47763635  0.26125526  0.21689994    -1.91200
Cd82       Cd  0.45731691  0.27317512  0.17824310     1.59900
O83         O  0.53330198  0.29170299  0.26049175    -0.80600
O84         O  0.45097681  0.23496882  0.15191347    -0.79300
C85         C  0.53342906  0.20693631  0.19068195     0.83200
C86         C  0.46013677  0.21622938  0.28652125     0.82900
O87         O  0.43771242  0.20418396  0.19046231    -0.78300
C88         C  0.42124862  0.31465533  0.20847429     0.83700
O89         O  0.50643010  0.20035015  0.19921750    -0.78300
C90         C  0.51444248  0.30376602  0.28009835     0.83800
C91         C  0.50746682  0.31939989  0.16277302     0.84200
O92         O  0.52461321  0.30915865  0.18458685    -0.80800
O93         O  0.19624864  0.28150756  0.47775052    -0.78300
C94         C  0.18718001  0.17572103  0.47572576     0.82800
O95         O  0.22306920  0.21166055  0.55895191    -0.79400
O96         O  0.29044159  0.16925413  0.50814125    -0.80900
O97         O  0.29854737  0.23353565  0.43811933    -0.80700
O98         O  0.23763566  0.29601338  0.45130180    -0.79300
Zn99       Zn  0.20463496  0.23948136  0.49214826     1.55700
O100        O  0.27215394  0.19028432  0.43832326    -0.80700
Cd101      Cd  0.26746578  0.25960690  0.46442799     1.59700
Cd102      Cd  0.26053515  0.23443815  0.53614000     1.59600
O103        O  0.29623931  0.28379085  0.49141078    -0.80700
O104        O  0.24727782  0.23108236  0.49289458    -1.91200
Cd105      Cd  0.25518251  0.18821041  0.48174502     1.59900
O106        O  0.27872647  0.27960441  0.53992685    -0.80600
O107        O  0.21391745  0.16545953  0.48261935    -0.79300
C108        C  0.19551493  0.21757197  0.55034510     0.83200
C109        C  0.21135500  0.30200890  0.46353419     0.82900
O110        O  0.18173545  0.20443542  0.47296687    -0.78300
C111        C  0.29776734  0.20418903  0.43648852     0.83700
O112        O  0.19085024  0.24176549  0.53502683    -0.78300
C113        C  0.29559392  0.29282668  0.51929695     0.83800
C114        C  0.30592171  0.18118759  0.53018845     0.84200
O115        O  0.29814486  0.20669892  0.54222429    -0.80800
O116        O  0.69794152  0.56473581  0.18870993    -0.78300
C117        C  0.79052219  0.54238017  0.20329665     0.82800
O118        O  0.70195750  0.45566525  0.21905103    -0.79400
O119        O  0.77992431  0.51913749  0.28960971    -0.80900
O120        O  0.68848120  0.58122877  0.27818815    -0.80700
O121        O  0.65660663  0.54975316  0.21489018    -0.79300
Zn122      Zn  0.72365282  0.52956649  0.20384878     1.55700
O123        O  0.73424118  0.57298184  0.29970858    -0.80700
Cd124      Cd  0.68043510  0.54096661  0.25555853     1.59700
Cd125      Cd  0.72299951  0.47982996  0.25710240     1.59600
O126        O  0.65803436  0.51321379  0.28707527    -0.80700
O127        O  0.72121855  0.52382502  0.24609069    -1.91200
Cd128      Cd  0.75473677  0.54780048  0.26378584     1.59900
O129        O  0.69205571  0.47513096  0.29249428    -0.80600
O130        O  0.78831456  0.55669037  0.22925979    -0.79300
C131        C  0.69301417  0.46858910  0.19380901     0.83200
C132        C  0.66872390  0.56300500  0.19158412     0.82900
O133        O  0.76710789  0.52985344  0.19086536    -0.78300
C134        C  0.70586233  0.58067186  0.30182903     0.83700
O135        O  0.70192415  0.49526177  0.18653242    -0.78300
C136        C  0.66752770  0.48901614  0.30074760     0.83800
C137        C  0.78407495  0.49055246  0.29286778     0.84200
O138        O  0.76673245  0.47072720  0.27902200    -0.80800
O139        O  0.05606407  0.32024064  0.30404294    -0.78300
C140        C  0.03931346  0.30381430  0.21223645     0.82800
O141        O  0.94699627  0.29239534  0.29314883    -0.79400
O142        O  0.01321604  0.21798413  0.22349495    -0.80900
O143        O  0.06925402  0.23765115  0.32152967    -0.80700
O144        O  0.03289839  0.30131866  0.34532975    -0.79300
Zn145      Zn  0.02230860  0.30478232  0.27738861     1.55700
O146        O  0.06512667  0.21169421  0.27732146    -0.80700
Cd147      Cd  0.02759082  0.25884171  0.32440320     1.59700
Cd148      Cd  0.97114104  0.25273523  0.27789688     1.59600
O149        O  0.99791754  0.22963662  0.34718402    -0.80700
O150        O  0.01477631  0.26355533  0.28129049    -1.91200
Cd151      Cd  0.04099389  0.24432505  0.25026958     1.59900
O152        O  0.96335179  0.21858578  0.31039655    -0.80600
O153        O  0.05291628  0.27769294  0.21566631    -0.79300
C154        C  0.95939130  0.31834464  0.29980162     0.83200
C155        C  0.04945572  0.32188277  0.33262686     0.82900
O156        O  0.02562809  0.31642075  0.23467261    -0.78300
C157        C  0.07079098  0.21267851  0.30646543     0.83700
O158        O  0.98713213  0.32448038  0.29384852    -0.78300
C159        C  0.97511418  0.21405525  0.33711189     0.83800
C160        C  0.98457056  0.21771944  0.21734831     0.84200
O161        O  0.96481399  0.23264786  0.23368411    -0.80800
O162        O  0.73189883  0.00501640  0.30268817    -0.78300
C163        C  0.82389819  0.95915558  0.31807768     0.82800
O164        O  0.81066196  0.06212688  0.26291227    -0.79400
O165        O  0.85113710  0.99630367  0.21876597    -0.80900
O166        O  0.76638824  0.93841142  0.20505740    -0.80700
O167        O  0.71300618  0.96907868  0.27092292    -0.79300
Zn168      Zn  0.77644398  0.00003577  0.29481554     1.55700
O169        O  0.81001186  0.93266270  0.22979073    -0.80700
Cd170      Cd  0.74754077  0.97040059  0.23636437     1.59700
Cd171      Cd  0.78551258  0.03371120  0.23187489     1.59600
O172        O  0.72435465  0.99686277  0.20621435    -0.80700
O173        O  0.78255512  0.99398451  0.25272869    -1.91200
Cd174      Cd  0.82257051  0.97292170  0.24945701     1.59900
O175        O  0.74195572  0.04467977  0.21118717    -0.80600
O176        O  0.83920381  0.96339918  0.29325081    -0.79300
C177        C  0.81608926  0.05613515  0.29143723     0.83200
C178        C  0.70934632  0.98924402  0.29246129     0.82900
O179        O  0.79571917  0.96698234  0.32060670    -0.78300
C180        C  0.79572862  0.93582379  0.20441586     0.83700
O181        O  0.80173832  0.03529816  0.30594359    -0.78300
C182        C  0.72225072  0.02527597  0.20035766     0.83800
C183        C  0.84262193  0.01433560  0.19699523     0.84200
O184        O  0.81597255  0.02671208  0.19655949    -0.80800
O185        O  0.69319533  0.81897789  0.44594264    -0.78300
C186        C  0.70705113  0.72546446  0.46798688     0.82800
O187        O  0.72466871  0.80918854  0.55475012    -0.79400
O188        O  0.79602745  0.73655184  0.48558624    -0.80900
O189        O  0.77619139  0.82655471  0.42826669    -0.80700
O190        O  0.71785696  0.85899309  0.46610196    -0.79300
Zn191      Zn  0.70848237  0.79230732  0.48008560     1.55700
O192        O  0.79930240  0.78176815  0.42940592    -0.80700
Cd193      Cd  0.75873788  0.83539151  0.47059203     1.59700
Cd194      Cd  0.76266368  0.79033166  0.52907726     1.59600
O195        O  0.79192606  0.85558161  0.49757725    -0.80700
O196        O  0.75068604  0.79396129  0.48550007    -1.91200
Cd197      Cd  0.76715149  0.76104238  0.45917931     1.59900
O198        O  0.79868791  0.82078183  0.53487042    -0.80600
O199        O  0.73281387  0.72666517  0.45336746    -0.79300
C200        C  0.69866103  0.81777349  0.54325278     0.83200
C201        C  0.69529911  0.84773876  0.45097045     0.82900
O202        O  0.69504650  0.74948207  0.47941912    -0.78300
C203        C  0.80093933  0.81108443  0.42873582     0.83700
O204        O  0.69108586  0.81173297  0.51571920    -0.78300
C205        C  0.80640166  0.84560982  0.52123334     0.83800
C206        C  0.79718034  0.72967749  0.51397974     0.84200
O207        O  0.78231841  0.74529546  0.53453191    -0.80800
C208        C  0.95552954  0.86992151  0.39955143     0.86700
C209        C  0.97471652  0.89583630  0.41440477    -0.53500
C210        C  0.95713152  0.91602166  0.43151477     0.09600
C211        C  0.92182182  0.90833869  0.43114831     0.20600
C212        C  0.93904998  0.85578576  0.42750850    -0.54300
C213        C  0.91786404  0.87430894  0.44175064     0.09700
C214        C  0.93097902  0.88689505  0.38070750    -0.53800
C215        C  0.91307828  0.90658799  0.39686534     0.10300
H216        H  0.99955863  0.89778165  0.41232697     0.14800
H217        H  0.90825338  0.92506208  0.44485393     0.00600
H218        H  0.94100789  0.83144579  0.43212144     0.15100
H219        H  0.92717120  0.88252993  0.35621615     0.14900
C220        C  0.86621872  0.11423524  0.44220433     0.86700
C221        C  0.85699093  0.09205089  0.41627064    -0.53500
C222        C  0.88056881  0.08212370  0.39829619     0.09600
C223        C  0.91254918  0.08992981  0.41216617     0.20600
C224        C  0.88720116  0.09415069  0.46296932    -0.54300
C225        C  0.91161198  0.08089251  0.44735263     0.09700
C226        C  0.88847307  0.13747639  0.42759476    -0.53800
C227        C  0.91270563  0.12512821  0.41212693     0.10300
H228        H  0.83327633  0.08754849  0.40955344     0.14800
H229        H  0.93200822  0.07947206  0.39928044     0.00600
H230        H  0.88309387  0.09045761  0.48742360     0.15100
H231        H  0.88439256  0.16212879  0.42826696     0.14900
C232        C  0.87892019  0.96607134  0.62126755     0.86700
C233        C  0.89934677  0.94594397  0.64153918    -0.53500
C234        C  0.91987345  0.92755780  0.62665992     0.09600
C235        C  0.92016062  0.93414633  0.59121714     0.20600
C236        C  0.90209560  0.98663171  0.60346634    -0.54300
C237        C  0.92375648  0.96989230  0.58695994     0.09700
C238        C  0.86575953  0.94530841  0.59610162    -0.53800
C239        C  0.88682000  0.92822632  0.58093174     0.10300
H240        H  0.89413885  0.94355901  0.66594645     0.14800
H241        H  0.93729280  0.92037207  0.57822734     0.00600
H242        H  0.90044879  0.01146630  0.60230397     0.15100
H243        H  0.84115256  0.94288857  0.59176952     0.14900
C244        C  0.11529634  0.06075742  0.37438482     0.86700
C245        C  0.09124544  0.03881269  0.38925716    -0.53500
C246        C  0.07063039  0.05394472  0.40845034     0.09600
C247        C  0.07619683  0.08928138  0.41029832     0.20600
C248        C  0.09564765  0.08472448  0.35806528    -0.54300
C249        C  0.07686490  0.10123788  0.37644947     0.09700
C250        C  0.12975352  0.07662095  0.40250215    -0.53800
C251        C  0.10958139  0.09116466  0.42146583     0.10300
H252        H  0.09188224  0.01400434  0.38741484     0.14800
H253        H  0.05961482  0.10165819  0.42535572     0.00600
H254        H  0.09982283  0.09142622  0.33417393     0.15100
H255        H  0.15453403  0.07728547  0.40632354     0.14900
C256        C  0.04449243  0.15041245  0.59901484     0.86700
C257        C  0.06832654  0.16323999  0.57652017    -0.53500
C258        C  0.08704702  0.14215340  0.56304158     0.09600
C259        C  0.07794435  0.10854203  0.57103948     0.20600
C260        C  0.02513856  0.12760946  0.57947095    -0.54300
C261        C  0.04245963  0.10540679  0.56460856     0.09700
C262        C  0.06361845  0.12966713  0.62048038    -0.53800
C263        C  0.08029824  0.10717933  0.60640531     0.10300
H264        H  0.07389786  0.18722121  0.57464529     0.14800
H265        H  0.09200979  0.09109647  0.55885567     0.00600
H266        H  0.00016399  0.12844658  0.57825743     0.15100
H267        H  0.06445040  0.13319084  0.64532974     0.14900
C268        C  0.12481704  0.90343193  0.56454678     0.86700
C269        C  0.10929371  0.92553646  0.54093370    -0.53500
C270        C  0.08626595  0.94348235  0.55386321     0.09600
C271        C  0.08151008  0.93762442  0.58910259     0.20600
C272        C  0.13592999  0.92458357  0.59001961    -0.54300
C273        C  0.11381640  0.94122775  0.60414356     0.09700
C274        C  0.09764007  0.88550358  0.57800929    -0.53800
C275        C  0.07484596  0.90301609  0.59055108     0.10300
H276        H  0.11440574  0.92575748  0.51640948     0.14800
H277        H  0.06331652  0.95207573  0.59975968     0.00600
H278        H  0.15968274  0.92451569  0.59824368     0.15100
H279        H  0.09689339  0.86053709  0.57806076     0.14900
O280        O  0.02435072  0.02877353  0.42603575    -0.78300
C281        C  0.97055907  0.94224748  0.44958188     0.82800
O282        O  0.93937400  0.06150107  0.49228206    -0.79400
O283        O  0.96217069  0.96447828  0.54810385    -0.80900
O284        O  0.07090348  0.98780890  0.52404308    -0.80700
O285        O  0.06236883  0.03682766  0.46002693    -0.79300
Zn286      Zn  0.98771863  0.01224087  0.45249342     1.55700
O287        O  0.03606213  0.95111920  0.53280962    -0.80700
Cd288      Cd  0.04407828  0.02299012  0.50280489     1.59700
Cd289      Cd  0.97135609  0.03925448  0.52321632     1.59600
O290        O  0.04770158  0.06165016  0.53154997    -0.80700
O291        O  0.99903403  0.01081772  0.49739092    -1.91200
Cd292      Cd  0.99474038  0.96705798  0.51288435     1.59900
O293        O  0.99969036  0.07392250  0.54545359    -0.80600
O294        O  0.97888171  0.93753045  0.47757408    -0.79300
C295        C  0.93558593  0.06075340  0.46275124     0.83200
C296        C  0.05157921  0.03823736  0.43250095     0.82900
O297        O  0.97277212  0.96895398  0.43720748    -0.78300
C298        C  0.06343861  0.96169290  0.53541643     0.83700
O299        O  0.95224667  0.04333716  0.44577553    -0.78300
C300        C  0.02896402  0.07903656  0.54613323     0.83800
C301        C  0.94533715  0.98333271  0.56307517     0.84200
O302        O  0.94610026  0.01235142  0.55711499    -0.80800
O303        O  0.80298068  0.23694131  0.48588320    -0.78300
C304        C  0.82261948  0.33839502  0.47593005     0.82800
O305        O  0.77433671  0.31611001  0.55911227    -0.79400
O306        O  0.72323449  0.36067417  0.50712107    -0.80900
O307        O  0.70431957  0.29150854  0.44150727    -0.80700
O308        O  0.76552988  0.22730028  0.45205134    -0.79300
Zn309      Zn  0.79697834  0.27927408  0.49935115     1.55700
O310        O  0.73101703  0.33490901  0.43933227    -0.80700
Cd311      Cd  0.73513388  0.26338749  0.46614244     1.59700
Cd312      Cd  0.73725437  0.29319354  0.53559450     1.59600
O313        O  0.70667809  0.23815151  0.49284223    -0.80700
O314        O  0.75568215  0.29173146  0.49426710    -1.91200
Cd315      Cd  0.75321142  0.33475511  0.48088657     1.59900
O316        O  0.71913310  0.24812573  0.54211787    -0.80600
O317        O  0.79692023  0.35237271  0.47863496    -0.79300
C318        C  0.80155658  0.30614346  0.55408147     0.83200
C319        C  0.78974893  0.21885411  0.46712274     0.82900
O320        O  0.82539984  0.30946508  0.47951908    -0.78300
C321        C  0.70544460  0.32069096  0.43759498     0.83700
O322        O  0.80426387  0.27911907  0.54389350    -0.78300
C323        C  0.70531506  0.23169927  0.52143656     0.83800
C324        C  0.70044049  0.35048776  0.52253491     0.84200
O325        O  0.70029078  0.32315349  0.53307485    -0.80800
O326        O  0.97280218  0.71228920  0.77024051    -0.78300
C327        C  0.96256973  0.69688440  0.66851422     0.82800
O328        O  0.04472714  0.74491069  0.69240345    -0.79400
O329        O  0.98929841  0.79815406  0.65053359    -0.80900
O330        O  0.92651971  0.81306916  0.72432861    -0.80700
O331        O  0.93977064  0.74875100  0.78411713    -0.79300
Zn332      Zn  0.98587755  0.72088574  0.72865090     1.55700
O333        O  0.92265198  0.78739367  0.68034282    -0.80700
Cd334      Cd  0.95271805  0.78099929  0.74936336     1.59700
Cd335      Cd  0.02114568  0.78080641  0.71677602     1.59600
O336        O  0.98050402  0.80783730  0.77537027    -0.80700
O337        O  0.97978214  0.76239513  0.71834400    -1.91200
Cd338      Cd  0.96436822  0.76646717  0.67578866     1.59900
O339        O  0.02939442  0.79788054  0.76227907    -0.80600
O340        O  0.96253457  0.72338349  0.65581831    -0.79300
C341        C  0.04027947  0.71765982  0.70224167     0.83200
C342        C  0.95503762  0.72409051  0.79007746     0.82900
O343        O  0.96755890  0.69306320  0.69725024    -0.78300
C344        C  0.92252019  0.81278604  0.69496763     0.83700
O345        O  0.03032202  0.71469787  0.72941615    -0.78300
C346        C  0.00926637  0.81025781  0.78034961     0.83800
C347        C  0.00688229  0.81936115  0.66066219     0.84200
O348        O  0.01861752  0.81821973  0.68767233    -0.80800
C349        C  0.09662313  0.57293397  0.63904976     0.86700
C350        C  0.06852296  0.58867937  0.65306112    -0.53500
C351        C  0.05068526  0.60521176  0.63296321     0.09600
C352        C  0.06022839  0.59944551  0.59872566     0.20600
C353        C  0.08223299  0.54990603  0.61587376    -0.54300
C354        C  0.06262120  0.56359400  0.59469234     0.09700
C355        C  0.11225572  0.59672971  0.61852143    -0.53800
C356        C  0.09376234  0.61069698  0.59774285     0.10300
H357        H  0.06642807  0.59064045  0.67796605     0.14800
H358        H  0.04486704  0.61079624  0.58161149     0.00600
H359        H  0.08687365  0.52541926  0.61600524     0.15100
H360        H  0.13651146  0.60277256  0.62080357     0.14900
C361        C  0.14332222  0.41443521  0.45017483     0.86700
C362        C  0.15578361  0.44190406  0.43208497    -0.53500
C363        C  0.13496893  0.45649046  0.41341134     0.09600
C364        C  0.10135489  0.44541696  0.41981394     0.20600
C365        C  0.11906526  0.42947332  0.47167915    -0.54300
C366        C  0.09688269  0.44613671  0.45578570     0.09700
C367        C  0.12405580  0.39553424  0.42765417    -0.53800
C368        C  0.10245223  0.41116045  0.41180292     0.10300
H369        H  0.18031982  0.44625525  0.43092090     0.14800
H370        H  0.08357301  0.45852104  0.40681884     0.00600
H371        H  0.11932338  0.42736149  0.49666988     0.15100
H372        H  0.12791829  0.37111186  0.42369818     0.14900
C373        C  0.87306590  0.62322644  0.54739471     0.86700
C374        C  0.89217416  0.60182892  0.52598279    -0.53500
C375        C  0.90876953  0.57971609  0.54209717     0.09600
C376        C  0.90372645  0.58134811  0.57794642     0.20600
C377        C  0.85307895  0.60117405  0.56568721    -0.54300
C378        C  0.86821539  0.58053706  0.58393027     0.09700
C379        C  0.89700821  0.63580234  0.56983840    -0.53800
C380        C  0.91305975  0.61435235  0.58569933     0.10300
H381        H  0.89397125  0.60485699  0.50117106     0.14800
H382        H  0.91723656  0.56395518  0.59078267     0.00600
H383        H  0.82857701  0.60556838  0.56697325     0.15100
H384        H  0.90068169  0.66028996  0.57337983     0.14900
C385        C  0.88448311  0.45949241  0.37823660     0.86700
C386        C  0.90755398  0.48124419  0.39503039    -0.53500
C387        C  0.93116849  0.46584100  0.41020661     0.09600
C388        C  0.92969433  0.43025027  0.40574019     0.20600
C389        C  0.90445935  0.44046615  0.35684021    -0.54300
C390        C  0.92748219  0.42409096  0.37042117     0.09700
C391        C  0.87433791  0.43767664  0.40392274    -0.53800
C392        C  0.89760101  0.42212020  0.41783243     0.10300
H393        H  0.90412066  0.50580414  0.39730527     0.14800
H394        H  0.94850295  0.41760932  0.41759491     0.00600
H395        H  0.89770013  0.43732854  0.33284561     0.15100
H396        H  0.85033989  0.43391462  0.41005383     0.14900
C397        C  0.95329557  0.37051026  0.60082350     0.86700
C398        C  0.93371066  0.35596642  0.57529726    -0.53500
C399        C  0.91487405  0.37560191  0.55933644     0.09600
C400        C  0.92112779  0.40980702  0.56795845     0.20600
C401        C  0.97364545  0.39390424  0.58295040    -0.54300
C402        C  0.95687081  0.41482784  0.56559091     0.09700
C403        C  0.93144667  0.39064764  0.61937670    -0.53800
C404        C  0.91466814  0.41078362  0.60272450     0.10300
H405        H  0.93175764  0.33121719  0.57339790     0.14800
H406        H  0.90724815  0.42645198  0.55431650     0.00600
H407        H  0.99860470  0.39439736  0.58405412     0.15100
H408        H  0.92830983  0.38818769  0.64423413     0.14900
C409        C  0.05595764  0.63098851  0.38228241     0.86700
C410        C  0.03395200  0.61401779  0.40504298    -0.53500
C411        C  0.04921647  0.59749214  0.42780661     0.09600
C412        C  0.08515772  0.60053014  0.42582767     0.20600
C413        C  0.07629217  0.65070997  0.40321086    -0.54300
C414        C  0.09236250  0.63542377  0.42545946     0.09700
C415        C  0.07672599  0.60532517  0.37057059    -0.53800
C416        C  0.09219538  0.58976831  0.39283637     0.10300
H417        H  0.00913844  0.61316916  0.40262198     0.14800
H418        H  0.09828090  0.58764646  0.44368840     0.00600
H419        H  0.08002329  0.67495728  0.39850539     0.15100
H420        H  0.08048848  0.60092081  0.34609649     0.14900
O421        O  0.04350995  0.45199124  0.47046948    -0.78300
C422        C  0.97129768  0.44145225  0.54840117     0.82800
O423        O  0.95130860  0.50939238  0.43931729    -0.79400
O424        O  0.94800662  0.54156812  0.54679281    -0.80900
O425        O  0.05974154  0.54359499  0.54292777    -0.80700
O426        O  0.07625707  0.48938241  0.48360729    -0.79300
Zn427      Zn  0.00006259  0.46614556  0.48641130     1.55700
O428        O  0.01983516  0.53431941  0.57413859    -0.80700
Cd429      Cd  0.04623106  0.52441233  0.49981853     1.59700
Cd430      Cd  0.97518067  0.53757127  0.47233091     1.59600
O431        O  0.05133176  0.55968003  0.46755973    -0.80700
O432        O  0.00161229  0.50975616  0.50052350    -1.91200
Cd433      Cd  0.98638174  0.51236225  0.54497441     1.59900
O434        O  0.00466492  0.56956491  0.44808084    -0.80600
O435        O  0.97148736  0.46821982  0.56091940    -0.79300
C436        C  0.95210952  0.48034419  0.43405342     0.83200
C437        C  0.07087447  0.46320028  0.47116232     0.82900
O438        O  0.98236990  0.43726628  0.52121381    -0.78300
C439        C  0.04657619  0.54600192  0.56929820     0.83700
O440        O  0.96967503  0.46267824  0.44989077    -0.78300
C441        C  0.03390154  0.57468057  0.44915174     0.83800
C442        C  0.93368929  0.55963397  0.52838764     0.84200
O443        O  0.94125297  0.56154856  0.49969690    -0.80800
C444        C  0.61792410  0.38973324  0.05004890     0.86700
C445        C  0.60306632  0.41474829  0.02882326    -0.53500
C446        C  0.58550498  0.43617420  0.04485181     0.09600
C447        C  0.58553278  0.43038357  0.08068673     0.20600
C448        C  0.63614267  0.40805390  0.07377936    -0.54300
C449        C  0.61960260  0.42766168  0.09122992     0.09700
C450        C  0.59005303  0.37651998  0.06729168    -0.53800
C451        C  0.57342017  0.39745324  0.08352574     0.10300
H452        H  0.60435730  0.41457048  0.00381555     0.14800
H453        H  0.57190729  0.44707861  0.09444802     0.00600
H454        H  0.66028386  0.40325930  0.07878830     0.15100
H455        H  0.58490115  0.35208902  0.06808462     0.14900
C456        C  0.54959642  0.65674894  0.09553193     0.86700
C457        C  0.56921942  0.66844244  0.06868726    -0.53500
C458        C  0.58845366  0.64734856  0.05549848     0.09600
C459        C  0.58130961  0.61415818  0.06713300     0.20600
C460        C  0.52890305  0.63228081  0.07963668    -0.54300
C461        C  0.54557031  0.60975891  0.06435153     0.09700
C462        C  0.57108292  0.63800656  0.11629275    -0.53800
C463        C  0.58740845  0.61596288  0.10202670     0.10300
H464        H  0.57066923  0.69276008  0.06385509     0.14800
H465        H  0.59477159  0.59603486  0.05514269     0.00600
H466        H  0.50391156  0.63258330  0.08020881     0.15100
H467        H  0.57391599  0.64249079  0.14091628     0.14900
C468        C  0.43994912  0.38624911  0.89230976     0.86700
C469        C  0.46193782  0.40652364  0.91172500    -0.53500
C470        C  0.44714507  0.43024731  0.92692591     0.09600
C471        C  0.41132600  0.43142029  0.91986868     0.20600
C472        C  0.41605057  0.37627929  0.91621653    -0.54300
C473        C  0.39805839  0.39911516  0.92744437     0.09700
C474        C  0.42382498  0.40905520  0.87049641    -0.53800
C475        C  0.40927730  0.43287334  0.88453329     0.10300
H476        H  0.48646093  0.40216372  0.91402079     0.14800
H477        H  0.39898651  0.45039904  0.93172814     0.00600
H478        H  0.41024535  0.35242658  0.92058249     0.15100
H479        H  0.42334413  0.40602926  0.84553473     0.14900
C480        C  0.36174366  0.61261172  0.94802276     0.86700
C481        C  0.34852225  0.58582183  0.92935779    -0.53500
C482        C  0.36898497  0.57065370  0.91081241     0.09600
C483        C  0.40285723  0.58087725  0.91757440     0.20600
C484        C  0.38541035  0.59660736  0.96941491    -0.54300
C485        C  0.40726836  0.57985772  0.95355714     0.09700
C486        C  0.38134196  0.63131088  0.92564838    -0.53800
C487        C  0.40253220  0.61517910  0.90971542     0.10300
H488        H  0.32388591  0.58234804  0.92778078     0.14800
H489        H  0.42035971  0.56743380  0.90464204     0.00600
H490        H  0.38504258  0.59806502  0.99444389     0.15100
H491        H  0.37765769  0.65571847  0.92150780     0.14900
C492        C  0.62211259  0.55911635  0.88111550     0.86700
C493        C  0.59685673  0.53950598  0.89707053    -0.53500
C494        C  0.57544641  0.55676022  0.91327670     0.09600
C495        C  0.58122299  0.59237122  0.91055873     0.20600
C496        C  0.60421216  0.58147961  0.86088165    -0.54300
C497        C  0.58355551  0.59994193  0.87537518     0.09700
C498        C  0.63528768  0.57822416  0.90758894    -0.53800
C499        C  0.61447579  0.59592305  0.92260466     0.10300
H500        H  0.59697912  0.51464176  0.89777461     0.14800
H501        H  0.56441071  0.60682402  0.92325211     0.00600
H502        H  0.61040663  0.58446723  0.83675691     0.15100
H503        H  0.65982970  0.57936612  0.91272910     0.14900
C504        C  0.40123917  0.46575875  0.13894282     0.86700
C505        C  0.42435599  0.44461777  0.15517059    -0.53500
C506        C  0.43984179  0.42490298  0.13643532     0.09600
C507        C  0.43473803  0.43262655  0.10123161     0.20600
C508        C  0.42133469  0.48532281  0.11729745    -0.54300
C509        C  0.43908978  0.46825519  0.09730433     0.09700
C510        C  0.38313802  0.44455973  0.11699594    -0.53800
C511        C  0.40011251  0.42841900  0.09620658     0.10300
H512        H  0.42476907  0.44096284  0.17984024     0.14800
H513        H  0.44929258  0.41891764  0.08529575     0.00600
H514        H  0.42024580  0.51022799  0.11652922     0.15100
H515        H  0.35816951  0.44259774  0.11786556     0.14900
O516        O  0.46063352  0.57224087  0.96725525    -0.78300
C517        C  0.53125405  0.58301037  0.04744657     0.82800
O518        O  0.55178005  0.51374158  0.94085225    -0.79400
O519        O  0.55192990  0.47965606  0.04801935    -0.80900
O520        O  0.44232860  0.48394743  0.04411972    -0.80700
O521        O  0.42637789  0.53799679  0.98429303    -0.79300
Zn522      Zn  0.50299803  0.55802551  0.98555979     1.55700
O523        O  0.48252345  0.49427943  0.07486636    -0.80700
Cd524      Cd  0.45514583  0.50195981  0.00023058     1.59700
Cd525      Cd  0.52529345  0.48560204  0.97251283     1.59600
O526        O  0.44697567  0.46780997  0.96720977    -0.80700
O527        O  0.50035849  0.51469945  0.00028311    -1.91200
Cd528      Cd  0.51642194  0.51231020  0.04456592     1.59900
O529        O  0.49305443  0.45623234  0.94739427    -0.80600
O530        O  0.53282809  0.55608844  0.05942963    -0.79300
C531        C  0.55269618  0.54295775  0.93589934     0.83200
C532        C  0.43279845  0.56256916  0.96937847     0.82900
O533        O  0.51890318  0.58723894  0.02078007    -0.78300
C534        C  0.45562749  0.48288577  0.07063245     0.83700
O535        O  0.53527053  0.56126696  0.95098049    -0.78300
C536        C  0.46350826  0.45256908  0.94827854     0.83800
C537        C  0.56390922  0.45953817  0.03015294     0.84200
O538        O  0.55637453  0.45825532  0.00127403    -0.80800
O539        O  0.22808557  0.54744147  0.69596051    -0.78300
C540        C  0.32887530  0.56977275  0.68515642     0.82800
O541        O  0.29619751  0.47072275  0.71204773    -0.79400
O542        O  0.34639796  0.51973026  0.77943951    -0.80900
O543        O  0.27537355  0.58725139  0.79880603    -0.80700
O544        O  0.21285859  0.57168397  0.73866769    -0.79300
Zn545      Zn  0.27273717  0.54337038  0.70260057     1.55700
O546        O  0.31773694  0.58946759  0.77131216    -0.80700
Cd547      Cd  0.25061877  0.55990608  0.76762747     1.59700
Cd548      Cd  0.27884775  0.49180999  0.75334520     1.59600
O549        O  0.23012525  0.53014777  0.79668963    -0.80700
O550        O  0.28073715  0.53554370  0.74420130    -1.91200
Cd551      Cd  0.32323713  0.54869848  0.74974256     1.59900
O552        O  0.23440851  0.48458456  0.77291482    -0.80600
O553        O  0.34176852  0.55445462  0.70672736    -0.79300
C554        C  0.29818936  0.48270960  0.68494177     0.83200
C555        C  0.20701372  0.55963878  0.71214738     0.82900
O556        O  0.30018489  0.57634301  0.68587015    -0.78300
C557        C  0.30479134  0.58710602  0.79743623     0.83700
O558        O  0.28725874  0.50891026  0.67883043    -0.78300
C559        C  0.22169847  0.50250572  0.79290150     0.83800
C560        C  0.33637054  0.49688283  0.79486069     0.84200
O561        O  0.31035542  0.48440884  0.78897002    -0.80800
C562        C  0.63549706  0.61829130  0.45920647     0.86700
C563        C  0.61429879  0.59553283  0.47641352    -0.53500
C564        C  0.59600538  0.57794408  0.45700926     0.09600
C565        C  0.60161824  0.58467666  0.42196510     0.20600
C566        C  0.65385154  0.59831680  0.43652377    -0.54300
C567        C  0.63688191  0.58232370  0.41576476     0.09700
C568        C  0.61315812  0.63631725  0.43811369    -0.53800
C569        C  0.59483358  0.61889162  0.41961530     0.10300
H570        H  0.61239615  0.59497872  0.50142017     0.14800
H571        H  0.58749665  0.57041701  0.40603904     0.00600
H572        H  0.67826611  0.60130473  0.43225224     0.15100
H573        H  0.61258637  0.66122829  0.43678264     0.14900
C574        C  0.61049636  0.45913986  0.62551774     0.86700
C575        C  0.58699831  0.47882862  0.60696601    -0.53500
C576        C  0.56999299  0.46247801  0.58532199     0.09600
C577        C  0.57796783  0.42742252  0.58506431     0.20600
C578        C  0.59179761  0.43288195  0.63929514    -0.54300
C579        C  0.57517376  0.41598897  0.61901236     0.09700
C580        C  0.62944178  0.44295383  0.60032931    -0.53800
C581        C  0.61286141  0.42723668  0.57873536     0.10300
H582        H  0.58534780  0.50358155  0.60948682     0.14800
H583        H  0.56450699  0.41359774  0.56820994     0.00600
H584        H  0.59415504  0.42500382  0.66291078     0.15100
H585        H  0.65447022  0.44273498  0.60023054     0.14900
C586        C  0.45852975  0.65053529  0.59342569     0.86700
C587        C  0.47709578  0.62500072  0.57734882    -0.53500
C588        C  0.45889212  0.60392827  0.56211049     0.09600
C589        C  0.42343442  0.61059245  0.56517222     0.20600
C590        C  0.43877228  0.66380751  0.56699136    -0.54300
C591        C  0.41749669  0.64420171  0.55431019     0.09700
C592        C  0.43586741  0.63340041  0.61434535    -0.53800
C593        C  0.41787737  0.61252219  0.59995019     0.10300
H594        H  0.50208063  0.62376390  0.57779519     0.14800
H595        H  0.40895089  0.59331754  0.55316138     0.00600
H596        H  0.43922214  0.68784640  0.56121839     0.15100
H597        H  0.43303275  0.63862299  0.63878890     0.14900
C598        C  0.38268780  0.57251590  0.37582738     0.86700
C599        C  0.40104185  0.59900952  0.36250705    -0.53500
C600        C  0.41944467  0.61379214  0.38275828     0.09600
C601        C  0.42006866  0.59890576  0.41536660     0.20600
C602        C  0.40764830  0.55031352  0.38894750    -0.54300
C603        C  0.42746678  0.56412267  0.40996077     0.09700
C604        C  0.36697502  0.58488564  0.40473996    -0.53800
C605        C  0.38595359  0.59884448  0.42543680     0.10300
H606        H  0.39834053  0.60680497  0.33873526     0.14800
H607        H  0.43565856  0.61057561  0.43203963     0.00600
H608        H  0.40831505  0.52588094  0.38410638     0.15100
H609        H  0.34208600  0.58422098  0.40767179     0.14900
C610        C  0.55321872  0.38439365  0.38135705     0.86700
C611        C  0.57427388  0.36816991  0.40433812    -0.53500
C612        C  0.59115875  0.38680589  0.42322224     0.09600
C613        C  0.58282886  0.42134567  0.41886057     0.20600
C614        C  0.53144930  0.40389044  0.40199925    -0.54300
C615        C  0.54697192  0.42358744  0.42170168     0.09700
C616        C  0.57304859  0.40837118  0.36524845    -0.53800
C617        C  0.58879310  0.42725972  0.38439379     0.10300
H618        H  0.57835801  0.34359923  0.40258308     0.14800
H619        H  0.59556588  0.43714075  0.43447855     0.00600
H620        H  0.50650576  0.40337659  0.40051592     0.15100
H621        H  0.57591779  0.40925027  0.34027371     0.14900
C622        C  0.37525004  0.39743540  0.54733763     0.86700
C623        C  0.35506877  0.42049118  0.56437308    -0.53500
C624        C  0.37015784  0.44288251  0.58038498     0.09600
C625        C  0.40567071  0.44133231  0.57545157     0.20600
C626        C  0.39476237  0.41735654  0.52498912    -0.54300
C627        C  0.41094559  0.44038823  0.53984180     0.09700
C628        C  0.39886310  0.38625640  0.57088066    -0.53800
C629        C  0.41444764  0.40874634  0.58571389     0.10300
H630        H  0.33048532  0.41642501  0.56659395     0.14800
H631        H  0.41901544  0.45962715  0.58728206     0.00600
H632        H  0.39728675  0.41307626  0.50047111     0.15100
H633        H  0.40253574  0.36206705  0.57611307     0.14900
O634        O  0.46190052  0.44819902  0.51977677    -0.78300
C635        C  0.53127109  0.44757552  0.44105531     0.82800
O636        O  0.54912070  0.50663794  0.55762980    -0.79400
O637        O  0.55174509  0.54593223  0.44803140    -0.80900
O638        O  0.43724318  0.54048382  0.45858907    -0.80700
O639        O  0.42887718  0.48756188  0.51815380    -0.79300
Zn640      Zn  0.50442875  0.46555231  0.50558714     1.55700
O641        O  0.47552451  0.53873532  0.42416982    -0.80700
Cd642      Cd  0.45597388  0.52307296  0.49974394     1.59700
Cd643      Cd  0.52779430  0.53553303  0.52344725     1.59600
O644        O  0.45245651  0.56016806  0.52976706    -0.80700
O645        O  0.50058695  0.50981281  0.49464063    -1.91200
Cd646      Cd  0.51258327  0.51699574  0.44959121     1.59900
O647        O  0.50054625  0.57083317  0.54469528    -0.80600
O648        O  0.52767498  0.47470431  0.42998771    -0.79300
C649        C  0.54985089  0.47727986  0.56080553     0.83200
C650        C  0.43504074  0.45957695  0.52455447     0.82900
O651        O  0.52298617  0.44097499  0.46868738    -0.78300
C652        C  0.44788369  0.54634329  0.43172828     0.83700
O653        O  0.53448059  0.45992018  0.54251211    -0.78300
C654        C  0.47150940  0.57682043  0.54470649     0.83800
C655        C  0.56912835  0.55895127  0.46813498     0.84200
O656        O  0.56342347  0.55685226  0.49717502    -0.80800
O657        O  0.45405141  0.69579127  0.79437569    -0.78300
C658        C  0.47277094  0.71992180  0.70319709     0.82800
O659        O  0.55818782  0.73279938  0.79835329    -0.79400
O660        O  0.49290311  0.80458238  0.72273778    -0.80900
O661        O  0.43171467  0.78394009  0.81059896    -0.80700
O662        O  0.46734216  0.72004773  0.83777966    -0.79300
Zn663      Zn  0.48764400  0.71510941  0.76986887     1.55700
O664        O  0.43642936  0.80839680  0.76637147    -0.80700
Cd665      Cd  0.47259331  0.76247476  0.81796074     1.59700
Cd666      Cd  0.53314269  0.77099962  0.77840876     1.59600
O667        O  0.49738530  0.79329885  0.84330009    -0.80700
O668        O  0.49015856  0.75705038  0.77692403    -1.91200
Cd669      Cd  0.46475034  0.77586727  0.74467035     1.59900
O670        O  0.53397616  0.80662874  0.80990823    -0.80600
O671        O  0.45696815  0.74446126  0.70806654    -0.79300
C672        C  0.54843703  0.70494914  0.80076173     0.83200
C673        C  0.45603892  0.69688614  0.82377347     0.82900
O674        O  0.48689577  0.70655932  0.72516721    -0.78300
C675        C  0.43311805  0.80906482  0.79572193     0.83700
O676        O  0.52328973  0.69648960  0.78865390    -0.78300
C677        C  0.51886273  0.81122145  0.83470442     0.83800
C678        C  0.52156987  0.80856567  0.71925128     0.84200
O679        O  0.54167983  0.79394972  0.73565194    -0.80800
O680        O  0.30559498  0.97358223  0.18877718    -0.78300
C681        C  0.21548495  0.98275530  0.20996801     0.82800
O682        O  0.29894385  0.07888988  0.22388418    -0.79400
O683        O  0.22820059  0.00731045  0.29312903    -0.80900
O684        O  0.32654905  0.95528932  0.27574803    -0.80700
O685        O  0.34838128  0.99110113  0.21107963    -0.79300
Zn686      Zn  0.27903358  0.00609482  0.20635886     1.55700
O687        O  0.28230250  0.95804580  0.30098147    -0.80700
Cd688      Cd  0.32801768  0.99651864  0.25382662     1.59700
Cd689      Cd  0.28107732  0.05227951  0.26128683     1.59600
O690        O  0.34991930  0.02463499  0.28526230    -0.80700
O691        O  0.28530924  0.00955008  0.24819295    -1.91200
Cd692      Cd  0.25622550  0.98138586  0.26723468     1.59900
O693        O  0.31194466  0.05711202  0.29730552    -0.80600
O694        O  0.22261634  0.96711440  0.23424002    -0.79300
C695        C  0.30461335  0.06884807  0.19656759     0.83200
C696        C  0.33474445  0.97715472  0.18899338     0.82900
O697        O  0.23497160  0.00065122  0.19752101    -0.78300
C698        C  0.31143995  0.95322507  0.30076725     0.83700
O699        O  0.29574258  0.04266634  0.18751023    -0.78300
C700        C  0.33849477  0.04547506  0.30251728     0.83800
C701        C  0.22034549  0.03534048  0.29408161     0.84200
O702        O  0.23592231  0.05646220  0.28023541    -0.80800
O703        O  0.30466727  0.74184695  0.98247790    -0.78300
C704        C  0.32312484  0.84177027  0.97436209     0.82800
O705        O  0.27762128  0.81277693  0.06217524    -0.79400
O706        O  0.22935647  0.86089129  0.01829474    -0.80900
O707        O  0.20251105  0.79498887  0.94637087    -0.80700
O708        O  0.26628706  0.73120832  0.95010193    -0.79300
Zn709      Zn  0.29898857  0.78217093  0.99894579     1.55700
O710        O  0.22514799  0.84102071  0.94833083    -0.80700
Cd711      Cd  0.23582700  0.76610498  0.96693689     1.59700
Cd712      Cd  0.24067183  0.79139271  0.03754139     1.59600
O713        O  0.20929142  0.73807493  0.99290927    -0.80700
O714        O  0.25747868  0.79333015  0.99556225    -1.91200
Cd715      Cd  0.25416997  0.83707925  0.98540613     1.59900
O716        O  0.22177734  0.74665886  0.04239950    -0.80600
O717        O  0.29728868  0.85546558  0.97732624    -0.79300
C718        C  0.30477643  0.80348348  0.05591445     0.83200
C719        C  0.29126384  0.72347042  0.96428416     0.82900
O720        O  0.32664727  0.81331251  0.98008023    -0.78300
C721        C  0.20138783  0.82438842  0.94387237     0.83700
O722        O  0.30746074  0.77775740  0.04290441    -0.78300
C723        C  0.20779561  0.73095755  0.02131844     0.83800
C724        C  0.20610684  0.84987161  0.03244345     0.84200
O725        O  0.20438094  0.82138294  0.03866171    -0.80800
C726        C  0.39014181  0.95794159  0.86780510     0.86700
C727        C  0.41026119  0.97967691  0.88774106    -0.53500
C728        C  0.43300945  0.96453807  0.90415052     0.09600
C729        C  0.43303938  0.92896554  0.89874893     0.20600
C730        C  0.41337939  0.94103649  0.84769236    -0.54300
C731        C  0.43471299  0.92364777  0.86304025     0.09700
C732        C  0.37807699  0.93456864  0.89101806    -0.53800
C733        C  0.40004725  0.91936683  0.90697470     0.10300
H734        H  0.40605243  0.00409919  0.89030169     0.14800
H735        H  0.45111976  0.91687760  0.91226778     0.00600
H736        H  0.40933043  0.93924552  0.82299343     0.15100
H737        H  0.35365044  0.92992207  0.89430391     0.14900
C738        C  0.62008925  0.89054871  0.94736511     0.86700
C739        C  0.63626685  0.90773428  0.92146938    -0.53500
C740        C  0.61807894  0.92605707  0.90417964     0.09600
C741        C  0.58457090  0.92831318  0.91627737     0.20600
C742        C  0.60568202  0.91640601  0.96780975    -0.54300
C743        C  0.58632797  0.93626471  0.95156631     0.09700
C744        C  0.59181222  0.87551859  0.93270378    -0.53800
C745        C  0.57353226  0.89483104  0.91613041     0.10300
H746        H  0.66030057  0.90367930  0.91554502     0.14800
H747        H  0.56963105  0.94371947  0.90229326     0.00600
H748        H  0.60860611  0.91760569  0.99268715     0.15100
H749        H  0.58789433  0.85084930  0.93338044     0.14900
C750        C  0.45282732  0.87900972  0.10802935     0.86700
C751        C  0.43453476  0.86095893  0.08399311    -0.53500
C752        C  0.41537482  0.87779143  0.06550916     0.09600
C753        C  0.42028621  0.91294295  0.07017297     0.20600
C754        C  0.47299938  0.90094733  0.08830195    -0.54300
C755        C  0.45597800  0.91914712  0.06817947     0.09700
C756        C  0.43008024  0.90052123  0.12373327    -0.53800
C757        C  0.41299651  0.91782016  0.10442851     0.10300
H758        H  0.43340243  0.83608670  0.08544840     0.14800
H759        H  0.40615618  0.92738995  0.05444648     0.00600
H760        H  0.49784898  0.90264382  0.09047682     0.15100
H761        H  0.42691010  0.90135534  0.14868878     0.14900
C762        C  0.35820617  0.11295389  0.03466952     0.86700
C763        C  0.38158732  0.09191589  0.01819219    -0.53500
C764        C  0.40231301  0.07797277  0.03807949     0.09600
C765        C  0.39771323  0.08743451  0.07281567     0.20600
C766        C  0.34386215  0.09145588  0.05885227    -0.54300
C767        C  0.36330175  0.08206742  0.08163296     0.09700
C768        C  0.37855853  0.13535057  0.05344917    -0.53800
C769        C  0.39973213  0.12227670  0.07236438     0.10300
H770        H  0.38236602  0.08907798  0.99327532     0.14800
H771        H  0.41442850  0.07632852  0.08875957     0.00600
H772        H  0.31958101  0.08714755  0.06120000     0.15100
H773        H  0.37500936  0.16007399  0.05332659     0.14900
C774        C  0.54239781  0.15059959  0.89636345     0.86700
C775        C  0.52246764  0.12624572  0.91337885    -0.53500
C776        C  0.53961172  0.10680209  0.93205424     0.09600
C777        C  0.57483556  0.11408756  0.93177645     0.20600
C778        C  0.55947014  0.16686500  0.92272168    -0.54300
C779        C  0.57887110  0.14884578  0.93985681     0.09700
C780        C  0.56642631  0.13136605  0.87948960    -0.53800
C781        C  0.58326236  0.11262684  0.89755100     0.10300
H782        H  0.49770400  0.12406099  0.91095143     0.14800
H783        H  0.58859840  0.09841657  0.94664925     0.00600
H784        H  0.56022378  0.19173628  0.92336872     0.15100
H785        H  0.57056258  0.13306218  0.85471731     0.14900
C786        C  0.61683605  0.06086769  0.12266591     0.86700
C787        C  0.59585395  0.08235195  0.14096532    -0.53500
C788        C  0.57616716  0.09995944  0.12392675     0.09600
C789        C  0.57772562  0.09240891  0.08889196     0.20600
C790        C  0.59409115  0.04023745  0.10398343    -0.54300
C791        C  0.57346609  0.05666736  0.08581384     0.09700
C792        C  0.63161748  0.08068613  0.09783691    -0.53800
C793        C  0.61179685  0.09764977  0.08086125     0.10300
H794        H  0.59922617  0.08579771  0.16562634     0.14800
H795        H  0.56171076  0.10625279  0.07448998     0.00600
H796        H  0.59469056  0.01537784  0.10386652     0.15100
H797        H  0.65647768  0.08302522  0.09534358     0.14900
O798        O  0.47779586  0.99056846  0.92481712    -0.78300
C799        C  0.52639311  0.08006468  0.94969373     0.82800
O800        O  0.55907673  0.95871717  0.99567472    -0.79400
O801        O  0.53282469  0.06008208  0.04826239    -0.80900
O802        O  0.42440187  0.03219245  0.01569446    -0.80700
O803        O  0.43891285  0.98012968  0.95683159    -0.79300
Zn804      Zn  0.51288908  0.00874113  0.95291742     1.55700
O805        O  0.45636464  0.07050638  0.02798725    -0.80700
Cd806      Cd  0.45438481  0.99663549  0.00001165     1.59700
Cd807      Cd  0.52702482  0.98380208  0.02460015     1.59600
O808        O  0.45083071  0.95977292  0.03120880    -0.80700
O809        O  0.49914834  0.01080553  0.99705373    -1.91200
Cd810      Cd  0.50033051  0.05523671  0.01230921     1.59900
O811        O  0.49848627  0.95072401  0.04882374    -0.80600
O812        O  0.51599807  0.08479590  0.97692871    -0.79300
C813        C  0.56406822  0.95898210  0.96633558     0.83200
C814        C  0.45086894  0.97950328  0.92983609     0.82900
O815        O  0.52686628  0.05289282  0.93794037    -0.78300
C816        C  0.42913895  0.05911810  0.02673061     0.83700
O817        O  0.54891325  0.97723305  0.94864591    -0.78300
C818        C  0.46942515  0.94446174  0.04828394     0.83800
C819        C  0.55144914  0.04224469  0.06260553     0.84200
O820        O  0.55210778  0.01317266  0.05670483    -0.80800
O821        O  0.96144771  0.82754290  0.20343548    -0.78300
C822        C  0.97768598  0.79901348  0.28962691     0.82800
O823        O  0.05901625  0.77513672  0.18947048    -0.79400
O824        O  0.99453151  0.71453279  0.27318827    -0.80900
O825        O  0.93207899  0.73549225  0.18255224    -0.80700
O826        O  0.96241977  0.80215338  0.15858364    -0.79300
Zn827      Zn  0.99506140  0.80321005  0.22410688     1.55700
O828        O  0.93929596  0.70999612  0.22588359    -0.80700
Cd829      Cd  0.97197679  0.75851612  0.17515245     1.59700
Cd830      Cd  0.03200868  0.74195012  0.21356105     1.59600
O831        O  0.99629144  0.72886988  0.14698588    -0.80700
O832        O  0.99146536  0.76139209  0.21614233    -1.91200
Cd833      Cd  0.96692093  0.74277226  0.24863609     1.59900
O834        O  0.02569031  0.70647327  0.18287197    -0.80600
O835        O  0.95925219  0.77673351  0.28279587    -0.79300
C836        C  0.05250219  0.80370816  0.18578446     0.83200
C837        C  0.95597258  0.82601243  0.17450599     0.82900
O838        O  0.99613362  0.81006846  0.26962349    -0.78300
C839        C  0.93477183  0.71005069  0.19662361     0.83700
O840        O  0.03120834  0.81690687  0.20087835    -0.78300
C841        C  0.01308879  0.70655619  0.15620656     0.83800
C842        C  0.02309240  0.70896025  0.27591262     0.84200
O843        O  0.04285044  0.72052757  0.25698121    -0.80800
O844        O  0.80633162  0.20687079  0.94358693    -0.78300
C845        C  0.79445796  0.29799786  0.96523393     0.82800
O846        O  0.78272501  0.21059339  0.05423321    -0.79400
O847        O  0.70951715  0.28799373  0.99163392    -0.80900
O848        O  0.72046626  0.19672570  0.93173847    -0.80700
O849        O  0.78393879  0.16577771  0.96383579    -0.79300
Zn850      Zn  0.79315066  0.23230299  0.97936888     1.55700
O851        O  0.69717812  0.24115016  0.93837085    -0.80700
Cd852      Cd  0.74306217  0.18846561  0.97184690     1.59700
Cd853      Cd  0.74264531  0.23124147  0.03219256     1.59600
O854        O  0.71242039  0.16635289  0.00002097    -0.80700
O855        O  0.75170298  0.22968053  0.98757673    -1.91200
Cd856      Cd  0.73386229  0.26242373  0.96231106     1.59900
O857        O  0.70727299  0.20006037  0.03848886    -0.80600
O858        O  0.76821157  0.29581521  0.95140671    -0.79300
C859        C  0.80770030  0.20288018  0.04007411     0.83200
C860        C  0.80573534  0.17803067  0.94849271     0.82900
O861        O  0.80656718  0.27483996  0.97820651    -0.78300
C862        C  0.69572283  0.21203598  0.93442444     0.83700
O863        O  0.81262890  0.21173187  0.01281023    -0.78300
C864        C  0.69887232  0.17568167  0.02435868     0.83800
C865        C  0.70685295  0.29247588  0.02040697     0.84200
O866        O  0.72086529  0.27533230  0.04046162    -0.80800
O867        O  0.18974883  0.04609181  0.68602190    -0.78300
C868        C  0.28560479  0.05000643  0.71147355     0.82800
O869        O  0.19297472  0.95678775  0.73035019    -0.79400
O870        O  0.27538878  0.02054717  0.79394571    -0.80900
O871        O  0.18125262  0.07774751  0.77996475    -0.80700
O872        O  0.15107398  0.04131807  0.71946257    -0.79300
Zn873      Zn  0.22285309  0.02171815  0.70785468     1.55700
O874        O  0.22489249  0.07229755  0.80542359    -0.80700
Cd875      Cd  0.17507654  0.03618391  0.75994722     1.59700
Cd876      Cd  0.21868730  0.97920587  0.76567000     1.59600
O877        O  0.15373969  0.00918215  0.79308848    -0.80700
O878        O  0.21680935  0.02179877  0.75092572    -1.91200
Cd879      Cd  0.24770129  0.04865312  0.76996076     1.59900
O880        O  0.19105873  0.97568109  0.80384317    -0.80600
O881        O  0.27997304  0.06413312  0.73694272    -0.79300
C882        C  0.19567089  0.96470582  0.70205332     0.83200
C883        C  0.16112932  0.04797063  0.69261213     0.82900
O884        O  0.26553103  0.03317416  0.69853464    -0.78300
C885        C  0.19587224  0.07737657  0.80537281     0.83700
O886        O  0.21947150  0.97915490  0.69375719    -0.78300
C887        C  0.16486915  0.98758584  0.80965132     0.83800
C888        C  0.28162356  0.99214979  0.79517699     0.84200
O889        O  0.26456782  0.97184191  0.78173165    -0.80800
C890        C  0.12686406  0.12742306  0.95873029     0.86700
C891        C  0.10664032  0.10577435  0.97855158    -0.53500
C892        C  0.08953215  0.08499960  0.96146273     0.09600
C893        C  0.09460835  0.08797504  0.92586749     0.20600
C894        C  0.14600846  0.10595438  0.93801481    -0.54300
C895        C  0.12982648  0.08548598  0.92043857     0.09700
C896        C  0.10408129  0.14184507  0.93588272    -0.53800
C897        C  0.08760173  0.12184363  0.91856235     0.10300
H898        H  0.10507906  0.10751263  0.00352670     0.14800
H899        H  0.08073524  0.07155107  0.91195710     0.00600
H900        H  0.16972784  0.11100079  0.93235643     0.15100
H901        H  0.10343601  0.16630346  0.93081089     0.14900
C902        C  0.10832810  0.95829503  0.13619669     0.86700
C903        C  0.08648795  0.97789106  0.11600351    -0.53500
C904        C  0.07267291  0.96170055  0.09228577     0.09600
C905        C  0.08240507  0.92700437  0.09128641     0.20600
C906        C  0.08767881  0.93177737  0.14693254    -0.54300
C907        C  0.07685554  0.91331373  0.12397263     0.09700
C908        C  0.13077543  0.94365633  0.11295233    -0.53800
C909        C  0.11749830  0.92797311  0.08931186     0.10300
H910        H  0.08305830  0.00235502  0.11944573     0.14800
H911        H  0.07124247  0.91374623  0.07238917     0.00600
H912        H  0.08500156  0.92470298  0.17069107     0.15100
H913        H  0.15565510  0.94427837  0.11604379     0.14900
C914        C  0.94703535  0.13093471  0.12180529     0.86700
C915        C  0.96797508  0.11786651  0.09581194    -0.53500
C916        C  0.95294239  0.09750904  0.07642628     0.09600
C917        C  0.91843036  0.09282857  0.08478801     0.20600
C918        C  0.91974495  0.14487777  0.10482042    -0.54300
C919        C  0.90408461  0.12532776  0.08645615     0.09700
C920        C  0.93470193  0.10203887  0.13771655    -0.53800
C921        C  0.91952703  0.08214843  0.11870063     0.10300
H922        H  0.99263083  0.12170844  0.09456454     0.14800
H923        H  0.90604550  0.07684174  0.06907423     0.00600
H924        H  0.91242644  0.16858620  0.10806361     0.15100
H925        H  0.93640370  0.09852896  0.16254082     0.14900
C926        C  0.85949642  0.91417669  0.05153718     0.86700
C927        C  0.84550088  0.94108715  0.06949035    -0.53500
C928        C  0.86433148  0.95444762  0.09096114     0.09600
C929        C  0.89866347  0.94444382  0.08578256     0.20600
C930        C  0.88479628  0.92995837  0.03229374    -0.54300
C931        C  0.90561107  0.94633796  0.04999216     0.09700
C932        C  0.87724360  0.89462736  0.07505343    -0.53800
C933        C  0.89778786  0.90996293  0.09271341     0.10300
H934        H  0.82106286  0.94583408  0.06824107     0.14800
H935        H  0.91536630  0.95744103  0.10018966     0.00600
H936        H  0.88608956  0.92865920  0.00728767     0.15100
H937        H  0.87322621  0.87012252  0.07804145     0.14900
C938        C  0.04470514  0.88578895  0.88677324     0.86700
C939        C  0.06494584  0.86752280  0.90918355    -0.53500
C940        C  0.08314362  0.88453073  0.92834212     0.09600
C941        C  0.07690689  0.91949843  0.92510843     0.20600
C942        C  0.02434657  0.90595190  0.90836244    -0.54300
C943        C  0.04133504  0.92394120  0.92862882     0.09700
C944        C  0.06603840  0.90904353  0.87132483    -0.53800
C945        C  0.08307497  0.92621688  0.89089673     0.10300
H946        H  0.06793006  0.84293783  0.90628332     0.14800
H947        H  0.09100523  0.93379560  0.94100367     0.00600
H948        H  0.99941889  0.90683677  0.90751128     0.15100
H949        H  0.06880693  0.91066998  0.84637413     0.14900
C950        C  0.89975313  0.05320602  0.86331501     0.86700
C951        C  0.92678300  0.07085332  0.84925594    -0.53500
C952        C  0.94062730  0.09179500  0.86822570     0.09600
C953        C  0.92924638  0.08904363  0.90210716     0.20600
C954        C  0.91509555  0.03546383  0.89023658    -0.54300
C955        C  0.93124290  0.05403553  0.91064837     0.09700
C956        C  0.87984704  0.07751222  0.87915734    -0.53800
C957        C  0.89468496  0.09579844  0.89938996     0.10300
H958        H  0.93237213  0.06968571  0.82504474     0.14800
H959        H  0.94163994  0.10446688  0.91837631     0.00600
H960        H  0.91392947  0.01066584  0.89250972     0.15100
H961        H  0.85540820  0.08057099  0.87423199     0.14900
O962        O  0.97621980  0.08121896  0.02846988    -0.78300
C963        C  0.06533183  0.06425241  0.97514673     0.82800
O964        O  0.94907245  0.01277389  0.94385111    -0.79400
O965        O  0.04715250  0.96410622  0.96565267    -0.80900
O966        O  0.02604508  0.98686321  0.07554300    -0.80700
O967        O  0.97445950  0.04813613  0.06795696    -0.79300
Zn968      Zn  0.99534875  0.05618611  0.99190883     1.55700
O969        O  0.06305263  0.97972221  0.04047169    -0.80700
Cd970      Cd  0.98927013  0.00626880  0.04946208     1.59700
Cd971      Cd  0.97170470  0.98492554  0.97771002     1.59600
O972        O  0.95075920  0.97766063  0.05484489    -0.80700
O973        O  0.00012518  0.01206689  0.00404303    -1.91200
Cd974      Cd  0.04490314  0.99903702  0.99885118     1.59900
O975        O  0.93745805  0.96370870  0.00696688    -0.80600
O976        O  0.07218186  0.03645455  0.98228790    -0.79300
C977        C  0.94957323  0.04164050  0.93772604     0.83200
C978        C  0.96937978  0.07474881  0.05655374     0.82900
O979        O  0.03777291  0.07445861  0.97832605    -0.78300
C980        C  0.05282011  0.97690537  0.06812303     0.83700
O981        O  0.96582007  0.06013453  0.95406465    -0.78300
C982        C  0.93274301  0.96341830  0.03637968     0.83800
C983        C  0.02807905  0.94766864  0.95029553     0.84200
O984        O  0.99879721  0.95163924  0.95285498    -0.80800
O985        O  0.32069147  0.31799772  0.03660757    -0.78300
C986        C  0.29415529  0.22383839  0.02301171     0.82800
O987        O  0.26510301  0.32344658  0.94328435    -0.79400
O988        O  0.20685697  0.23851561  0.01047663    -0.80900
O989        O  0.23309909  0.32429333  0.07351310    -0.80700
O990        O  0.28874122  0.35787712  0.03423856    -0.79300
Zn991      Zn  0.29615919  0.29120512  0.00686610     1.55700
O992        O  0.20602087  0.28217927  0.06789879    -0.80700
Cd993      Cd  0.24725915  0.33630191  0.03077990     1.59700
Cd994      Cd  0.23260492  0.29806359  0.97018116     1.59600
O995        O  0.21312302  0.36200189  0.00916910    -0.80700
O996        O  0.25300652  0.29632506  0.01071555    -1.91200
Cd997      Cd  0.23689763  0.26245741  0.03632094     1.59900
O998        O  0.19625703  0.32847253  0.97393134    -0.80600
O999        O  0.27085003  0.22788576  0.04093123    -0.79300
C1000       C  0.29404597  0.32705710  0.94850173     0.83200
C1001       C  0.31552316  0.34682325  0.03910802     0.82900
O1002       O  0.30585107  0.24616451  0.00797130    -0.78300
C1003       C  0.20718065  0.31101971  0.07300532     0.83700
O1004       O  0.30864523  0.31056395  0.96782199    -0.78300
C1005       C  0.19375791  0.35386680  0.98845029     0.83800
C1006       C  0.20117981  0.23534889  0.98196123     0.84200
O1007       O  0.21207545  0.25379000  0.96133352    -0.80800
O1008       O  0.80822656  0.45181978  0.69553249    -0.78300
C1009       C  0.71496805  0.47131669  0.70595093     0.82800
O1010       O  0.79527951  0.56055970  0.72058300    -0.79400
O1011       O  0.72678897  0.49269713  0.79633827    -0.80900
O1012       O  0.81823304  0.43570306  0.77142962    -0.80700
O1013       O  0.84855165  0.47632408  0.71503208    -0.79300
Zn1014     Zn  0.78138068  0.48556754  0.70874321     1.55700
O1015       O  0.77523790  0.43646563  0.79817359    -0.80700
Cd1016     Cd  0.82652160  0.47903375  0.75725561     1.59700
Cd1017     Cd  0.78003241  0.53578996  0.76033360     1.59600
O1018       O  0.84695048  0.50577057  0.79177632    -0.80700
O1019       O  0.78374984  0.49237965  0.75042811    -1.91200
Cd1020     Cd  0.75106797  0.46571508  0.76722063     1.59900
O1021       O  0.81225514  0.54354112  0.79434532    -0.80600
O1022       O  0.71606362  0.45810142  0.73257915    -0.79300
C1023       C  0.80408956  0.54814800  0.69515040     0.83200
C1024       C  0.83641617  0.45970614  0.69396780     0.82900
O1025       O  0.73898574  0.48312380  0.69448326    -0.78300
C1026       C  0.80473772  0.43475471  0.79726531     0.83700
O1027       O  0.79959841  0.52016871  0.68922284    -0.78300
C1028       C  0.83686076  0.53056414  0.80399288     0.83800
C1029       C  0.72120733  0.52130629  0.79793512     0.84200
O1030       O  0.73666278  0.54125711  0.78233171    -0.80800
O1031       O  0.02604210  0.21115319  0.72761945    -0.78300
C1032       C  0.04440631  0.20442257  0.82841297     0.82800
O1033       O  0.94549039  0.22435709  0.79061593    -0.79400
O1034       O  0.99294938  0.29860835  0.83915140    -0.80900
O1035       O  0.05885982  0.31494701  0.77290454    -0.80700
O1036       O  0.03968351  0.25571657  0.70672430    -0.79300
Zn1037     Zn  0.02175140  0.22069322  0.77109824     1.55700
O1038       O  0.06432387  0.28767985  0.81612043    -0.80700
Cd1039     Cd  0.03163121  0.28457283  0.74640640     1.59700
Cd1040     Cd  0.96451429  0.26664700  0.77314938     1.59600
O1041       O  0.99939317  0.31350858  0.72969715    -0.80700
O1042       O  0.00933297  0.26069243  0.77673110    -1.91200
Cd1043     Cd  0.02236689  0.26733668  0.81887221     1.59900
O1044       O  0.95929326  0.28226379  0.72591469    -0.80600
O1045       O  0.02680266  0.22500860  0.83975096    -0.79300
C1046       C  0.96085141  0.19932171  0.79418492     0.83200
C1047       C  0.03197632  0.22725635  0.70399067     0.82900
O1048       O  0.05403567  0.20637209  0.80062053    -0.78300
C1049       C  0.06643506  0.31286335  0.80153261     0.83700
O1050       O  0.98839432  0.19699733  0.78535897    -0.78300
C1051       C  0.97666408  0.30338682  0.71434648     0.83800
C1052       C  0.96815529  0.31115502  0.82940553     0.84200
O1053       O  0.95467939  0.30217723  0.80454075    -0.80800
C1054       C  0.87094089  0.40304995  0.95101646     0.86700
C1055       C  0.89473701  0.42176755  0.96968287    -0.53500
C1056       C  0.91519530  0.43807102  0.95161772     0.09600
C1057       C  0.90980715  0.43319929  0.91595951     0.20600
C1058       C  0.85607966  0.42679859  0.92946489    -0.54300
C1059       C  0.87544623  0.44148429  0.90952876     0.09700
C1060       C  0.89035450  0.38299271  0.92928865    -0.53800
C1061       C  0.91065273  0.39814217  0.91121168     0.10300
H1062       H  0.89523070  0.42217446  0.99476831     0.14800
H1063       H  0.92626055  0.44596938  0.90115765     0.00600
H1064       H  0.83157438  0.42812609  0.92607199     0.15100
H1065       H  0.88721613  0.35829281  0.92713071     0.14900
C1066       C  0.12049789  0.46384307  0.87119764     0.86700
C1067       C  0.10254964  0.43797465  0.85547324    -0.53500
C1068       C  0.08421700  0.42128078  0.87420635     0.09600
C1069       C  0.08429539  0.43265185  0.90820544     0.20600
C1070       C  0.09585826  0.48383152  0.88739422    -0.54300
C1071       C  0.07691327  0.46760351  0.90702491     0.09700
C1072       C  0.13716174  0.44736007  0.89800395    -0.53800
C1073       C  0.11835659  0.43186299  0.91785016     0.10300
H1074       H  0.10694797  0.42984035  0.83223225     0.14800
H1075       H  0.06896198  0.41932978  0.92373839     0.00600
H1076       H  0.09504128  0.50867044  0.88533565     0.15100
H1077       H  0.16206574  0.44719207  0.90063327     0.14900
C1078       C  0.94150079  0.64389625  0.89541898     0.86700
C1079       C  0.92122494  0.65471799  0.92186971    -0.53500
C1080       C  0.90564050  0.63235922  0.93722479     0.09600
C1081       C  0.91506052  0.59952851  0.92667631     0.20600
C1082       C  0.96491836  0.62240397  0.91190358    -0.54300
C1083       C  0.95111949  0.59898471  0.92848933     0.09700
C1084       C  0.92160646  0.62231045  0.87603220    -0.53800
C1085       C  0.90800981  0.59921425  0.89182694     0.10300
H1086       H  0.91744449  0.67893406  0.92651546     0.14800
H1087       H  0.90351536  0.58085400  0.93973808     0.00600
H1088       H  0.98971816  0.62536151  0.91097966     0.15100
H1089       H  0.91801338  0.62544305  0.85132002     0.14900
C1090       C  0.05357289  0.37852818  0.10401843     0.86700
C1091       C  0.03348828  0.39789674  0.08162725    -0.53500
C1092       C  0.05016319  0.41841826  0.06385464     0.09600
C1093       C  0.08562370  0.41691312  0.07014439     0.20600
C1094       C  0.07778589  0.36334415  0.08351826    -0.54300
C1095       C  0.09589105  0.38265523  0.06708257     0.09700
C1096       C  0.07213417  0.40274838  0.12218327    -0.53800
C1097       C  0.08745577  0.42385723  0.10476640     0.10300
H1098       H  0.00849451  0.39689699  0.08139471     0.14800
H1099       H  0.09902519  0.43275897  0.05535642     0.00600
H1100       H  0.08473017  0.33960458  0.08607639     0.15100
H1101       H  0.07305135  0.40319061  0.14726462     0.14900
C1102       C  0.89982415  0.55451142  0.13200193     0.86700
C1103       C  0.91916119  0.53552611  0.10902072    -0.53500
C1104       C  0.93713490  0.55305718  0.08957889     0.09600
C1105       C  0.93391032  0.58850789  0.09558370     0.20600
C1106       C  0.92337417  0.57501108  0.14879551    -0.54300
C1107       C  0.94021965  0.59435878  0.13058774     0.09700
C1108       C  0.88187673  0.57722477  0.11163070    -0.53800
C1109       C  0.89927888  0.59453936  0.09254340     0.10300
H1110       H  0.91785596  0.51066911  0.10754281     0.14800
H1111       H  0.94814337  0.60301890  0.08008120     0.00600
H1112       H  0.92217786  0.57894753  0.17330656     0.15100
H1113       H  0.85707746  0.58058281  0.11316631     0.14900
C1114       C  0.12390271  0.63012262  0.05110923     0.86700
C1115       C  0.13950542  0.61266463  0.07713281    -0.53500
C1116       C  0.12111037  0.59395810  0.09365774     0.09600
C1117       C  0.08764741  0.59197997  0.08069626     0.20600
C1118       C  0.11015822  0.60457862  0.03000573    -0.54300
C1119       C  0.09068095  0.58458455  0.04545104     0.09700
C1120       C  0.09525516  0.64491689  0.06529807    -0.53800
C1121       C  0.07618074  0.62540874  0.08068210     0.10300
H1122       H  0.16334615  0.61689660  0.08385932     0.14800
H1123       H  0.07246038  0.57591438  0.09348216     0.00600
H1124       H  0.11291507  0.60379015  0.00514199     0.15100
H1125       H  0.09106493  0.66951742  0.06410527     0.14900
O1126       O  0.04064142  0.57383205  0.02448972    -0.78300
C1127       C  0.96880805  0.57501844  0.94612432     0.82800
O1128       O  0.95590011  0.51063542  0.05786676    -0.79400
O1129       O  0.95662796  0.47408936  0.94610340    -0.80900
O1130       O  0.06770237  0.48556540  0.95819368    -0.80700
O1131       O  0.07594832  0.53669663  0.02107758    -0.79300
Zn1132     Zn  0.99933707  0.55537796  0.00869654     1.55700
O1133       O  0.02935398  0.49065179  0.92382519    -0.80700
Cd1134     Cd  0.04981712  0.50012834  0.00104107     1.59700
Cd1135     Cd  0.97819389  0.48311184  0.02295622     1.59600
O1136       O  0.05437033  0.46174291  0.03010271    -0.80700
O1137       O  0.00456260  0.51164997  0.99617095    -1.91200
Cd1138     Cd  0.99189004  0.50688241  0.95089194     1.59900
O1139       O  0.00680525  0.44874135  0.04459591    -0.80600
O1140       O  0.97255405  0.54841541  0.93402908    -0.79300
C1141       C  0.95559191  0.53976039  0.06318390     0.83200
C1142       C  0.06811160  0.56396834  0.02905530     0.82900
O1143       O  0.97877760  0.58107581  0.97339477    -0.78300
C1144       C  0.05693897  0.48258881  0.93076141     0.83700
O1145       O  0.97060203  0.55828113  0.04600927    -0.78300
C1146       C  0.03608792  0.44407862  0.04492253     0.83800
C1147       C  0.94023366  0.45841579  0.96484786     0.84200
O1148       O  0.94481602  0.45992696  0.99424424    -0.80800
O1149       O  0.52663101  0.70992454  0.22836524    -0.78300
C1150       C  0.54367217  0.70056650  0.33242908     0.82800
O1151       O  0.45138351  0.73627032  0.30070275    -0.79400
O1152       O  0.50128599  0.79887601  0.34348605    -0.80900
O1153       O  0.56759111  0.81390720  0.27504370    -0.80700
O1154       O  0.55710656  0.74864394  0.21454401    -0.79300
Zn1155     Zn  0.51865135  0.71719200  0.27248614     1.55700
O1156       O  0.57102577  0.78999154  0.32001557    -0.80700
Cd1157     Cd  0.54399326  0.77981375  0.24991374     1.59700
Cd1158     Cd  0.47401513  0.77276425  0.27661428     1.59600
O1159       O  0.51669263  0.80599129  0.22318427    -0.80700
O1160       O  0.51686467  0.75970134  0.27960715    -1.91200
Cd1161     Cd  0.52996898  0.76760860  0.32202259     1.59900
O1162       O  0.46848387  0.78942002  0.23038339    -0.80600
O1163       O  0.53423633  0.72603453  0.34360160    -0.79300
C1164       C  0.45956637  0.70794674  0.30074565     0.83200
C1165       C  0.54194457  0.72410064  0.20788464     0.82900
O1166       O  0.54621322  0.69638767  0.30331230    -0.78300
C1167       C  0.57146500  0.81469791  0.30440553     0.83700
O1168       O  0.47878420  0.69816015  0.28112964    -0.78300
C1169       C  0.48866524  0.80491994  0.21496921     0.83800
C1170       C  0.48019809  0.81572095  0.33182997     0.84200
O1171       O  0.46893793  0.81033443  0.30510661    -0.80800
O1172       O  0.46965676  0.33180390  0.69697667    -0.78300
C1173       C  0.46211337  0.30522661  0.78904725     0.82800
O1174       O  0.55765118  0.28850762  0.69865157    -0.79400
O1175       O  0.48896067  0.22141865  0.77608900    -0.80900
O1176       O  0.43770807  0.24313988  0.67848564    -0.80700
O1177       O  0.47939375  0.30381066  0.65480097    -0.79300
Zn1178     Zn  0.49352043  0.30910614  0.72825154     1.55700
O1179       O  0.43861704  0.21620698  0.72172424    -0.80700
Cd1180     Cd  0.48079998  0.26115505  0.67609989     1.59700
Cd1181     Cd  0.53458433  0.25263915  0.72361850     1.59600
O1182       O  0.50760500  0.22671638  0.65592878    -0.80700
O1183       O  0.49236569  0.26711966  0.71966035    -1.91200
Cd1184     Cd  0.46312122  0.24825472  0.74843240     1.59900
O1185       O  0.53815420  0.21474434  0.69569584    -0.80600
O1186       O  0.44755569  0.28037492  0.78224668    -0.79300
C1187       C  0.55062605  0.31681935  0.70232364     0.83200
C1188       C  0.47085682  0.32881311  0.66774318     0.82900
O1189       O  0.48054501  0.31735934  0.77006805    -0.78300
C1190       C  0.43606536  0.21746249  0.69225635     0.83700
O1191       O  0.53572006  0.32448179  0.72609276    -0.78300
C1192       C  0.52757727  0.20920201  0.66871961     0.83800
C1193       C  0.51664879  0.22234555  0.78560854     0.84200
O1194       O  0.53787207  0.23699674  0.77069950    -0.80800
O1195       O  0.76689576  0.03397548  0.80741731    -0.78300
C1196       C  0.66808600  0.06323888  0.81289686     0.82800
O1197       O  0.69961006  0.96172163  0.77871832    -0.79400
O1198       O  0.65476133  0.02220949  0.71353438    -0.80900
O1199       O  0.72785410  0.08671364  0.70536181    -0.80700
O1200       O  0.78586900  0.06338056  0.76993244    -0.79300
Zn1201     Zn  0.72296848  0.03386009  0.79673169     1.55700
O1202       O  0.68501900  0.08917731  0.73192781    -0.80700
Cd1203     Cd  0.75031817  0.05708318  0.73674420     1.59700
Cd1204     Cd  0.72013967  0.98787996  0.74173578     1.59600
O1205       O  0.77358478  0.03047313  0.70706439    -0.80700
O1206       O  0.71824771  0.03081266  0.75454472    -1.91200
Cd1207     Cd  0.67659474  0.04658651  0.74801904     1.59900
O1208       O  0.76394914  0.98168035  0.72000831    -0.80600
O1209       O  0.65532882  0.04977969  0.79002031    -0.79300
C1210       C  0.69266291  0.97281172  0.80538938     0.83200
C1211       C  0.78958140  0.04718144  0.79456554     0.82900
O1212       O  0.69718688  0.06743915  0.81399493    -0.78300
C1213       C  0.69846505  0.08893421  0.70600283     0.83700
O1214       O  0.70286421  0.99861197  0.81406483    -0.78300
C1215       C  0.77930906  0.00204400  0.70472609     0.83800
C1216       C  0.66518680  0.99969790  0.69783160     0.84200
O1217       O  0.68965762  0.98544611  0.70564780    -0.80800
C1218       C  0.39211909  0.06799271  0.63339423     0.86700
C1219       C  0.40874165  0.04515560  0.61155611    -0.53500
C1220       C  0.42759956  0.05966499  0.59024603     0.09600
C1221       C  0.42703122  0.09556513  0.59278312     0.20600
C1222       C  0.41873655  0.08625479  0.64729547    -0.54300
C1223       C  0.43557281  0.10314213  0.62693460     0.09700
C1224       C  0.37503691  0.08950608  0.61135275    -0.53800
C1225       C  0.39273846  0.10393960  0.59031212     0.10300
H1226       H  0.40640103  0.02038525  0.61291933     0.14800
H1227       H  0.44186279  0.10742446  0.57564228     0.00600
H1228       H  0.42040068  0.08946550  0.67214771     0.15100
H1229       H  0.35039243  0.09395234  0.61302746     0.14900
C1230       C  0.55542373  0.89526790  0.62244908     0.86700
C1231       C  0.53466239  0.91024162  0.59742964    -0.53500
C1232       C  0.55092968  0.92635539  0.57532533     0.09600
C1233       C  0.58664105  0.92525974  0.58033376     0.20600
C1234       C  0.57798837  0.87574515  0.60423497    -0.54300
C1235       C  0.59532315  0.89057463  0.58288268     0.09700
C1236       C  0.57399484  0.92217560  0.63498015    -0.53800
C1237       C  0.59037046  0.93773664  0.61347715     0.10300
H1238       H  0.50973983  0.91097798  0.59836010     0.14800
H1239       H  0.60007145  0.93825625  0.56289088     0.00600
H1240       H  0.58180252  0.85183558  0.61036770     0.15100
H1241       H  0.57523134  0.92774242  0.65948039     0.14900
C1242       C  0.63006602  0.12520473  0.55413928     0.86700
C1243       C  0.64767209  0.10149996  0.57331682    -0.53500
C1244       C  0.63022716  0.08336798  0.59206779     0.09600
C1245       C  0.59501725  0.08829570  0.58632168     0.20600
C1246       C  0.60852070  0.10523251  0.53365793    -0.54300
C1247       C  0.58984757  0.08560188  0.55044164     0.09700
C1248       C  0.60806628  0.14128707  0.57634465    -0.53800
C1249       C  0.58991190  0.12258222  0.59314779     0.10300
H1250       H  0.67256617  0.10291796  0.57544497     0.14800
H1251       H  0.58019695  0.07288801  0.60031849     0.00600
H1252       H  0.60761902  0.10635719  0.50866616     0.15100
H1253       H  0.60744401  0.16612867  0.57924399     0.14900
C1254       C  0.37988076  0.89292407  0.45179979     0.86700
C1255       C  0.39951598  0.91401120  0.47317267    -0.53500
C1256       C  0.41773649  0.93461913  0.45707814     0.09600
C1257       C  0.41430421  0.93186461  0.42119702     0.20600
C1258       C  0.36198127  0.91559371  0.43172333    -0.54300
C1259       C  0.37924982  0.93512413  0.41437163     0.09700
C1260       C  0.40370985  0.87807220  0.43070677    -0.53800
C1261       C  0.42120563  0.89784809  0.41433579     0.10300
H1262       H  0.39972824  0.91283827  0.49817609     0.14800
H1263       H  0.42901554  0.94814707  0.40812794     0.00600
H1264       H  0.33724059  0.91320084  0.42856273     0.15100
H1265       H  0.40524468  0.85333958  0.42728693     0.14900
C1266       C  0.60315391  0.97648447  0.36298330     0.86700
C1267       C  0.58016935  0.95345153  0.34882786    -0.53500
C1268       C  0.56811137  0.93220894  0.36871232     0.09600
C1269       C  0.57725995  0.93929353  0.40280602     0.20600
C1270       C  0.58435826  0.99343434  0.38784022    -0.54300
C1271       C  0.57053843  0.97420482  0.40899228     0.09700
C1272       C  0.62561604  0.95623766  0.38136578    -0.53800
C1273       C  0.61246810  0.93704206  0.40199849     0.10300
H1274       H  0.57758679  0.95056551  0.32425923     0.14800
H1275       H  0.56631049  0.92376242  0.41987884     0.00600
H1276       H  0.58263811  0.01828929  0.38891888     0.15100
H1277       H  0.65028227  0.95555121  0.37690261     0.14900
C1278       C  0.45371954  0.14231643  0.39403901     0.86700
C1279       C  0.43048620  0.15790214  0.41562874    -0.53500
C1280       C  0.41246316  0.13880378  0.43289545     0.09600
C1281       C  0.42052273  0.10447445  0.42757628     0.20600
C1282       C  0.47323499  0.12140676  0.41527667    -0.54300
C1283       C  0.45602084  0.10126691  0.43286841     0.09700
C1284       C  0.43352546  0.11992181  0.37553893    -0.53800
C1285       C  0.41652912  0.10025373  0.39257722     0.10300
H1286       H  0.42427363  0.18176866  0.41313948     0.14800
H1287       H  0.40640621  0.08836328  0.44146906     0.00600
H1288       H  0.49825140  0.12172941  0.41546850     0.15100
H1289       H  0.43096967  0.12078111  0.35053491     0.14900
O1290       O  0.52961396  0.94381366  0.52688841    -0.78300
C1291       C  0.44026005  0.95621982  0.47216907     0.82800
O1292       O  0.55114021  0.01469437  0.44239728    -0.79400
O1293       O  0.45135503  0.05828655  0.46685502    -0.80900
O1294       O  0.47488728  0.03597666  0.57409426    -0.80700
O1295       O  0.52903756  0.97595981  0.56723558    -0.79300
Zn1296     Zn  0.50905826  0.96820674  0.49080345     1.55700
O1297       O  0.43634395  0.03826721  0.53979605    -0.80700
Cd1298     Cd  0.51252384  0.01760658  0.54880374     1.59700
Cd1299     Cd  0.52825756  0.04075079  0.47762499     1.59600
O1300       O  0.54881745  0.04904773  0.55431778    -0.80700
O1301       O  0.50166194  0.01168751  0.50345523    -1.91200
Cd1302     Cd  0.45605479  0.02172660  0.49805725     1.59900
O1303       O  0.56104130  0.06448465  0.50672920    -0.80600
O1304       O  0.43157790  0.98337398  0.47967396    -0.79300
C1305       C  0.55227150  0.98579821  0.43628767     0.83200
C1306       C  0.53559445  0.94985110  0.55528667     0.82900
O1307       O  0.46823870  0.94753565  0.47606679    -0.78300
C1308       C  0.44713241  0.04318340  0.56695072     0.83700
O1309       O  0.53800229  0.96635165  0.45312771    -0.78300
C1310       C  0.56539752  0.06520994  0.53618302     0.83800
C1311       C  0.46974980  0.07648170  0.45284717     0.84200
O1312       O  0.49913122  0.07348780  0.45517365    -0.80800
C1313       C  0.69373579  0.07190161  0.65066600    -0.21100
C1314       C  0.67978539  0.08385441  0.67736074    -0.09100
C1315       C  0.64737478  0.08729030  0.67728663     0.29700
C1316       C  0.63016247  0.08203768  0.65022104    -0.21100
C1317       C  0.64484728  0.07445797  0.62238813    -0.09100
C1318       C  0.67647624  0.06664026  0.62374217     0.29700
F1319       F  0.69118619  0.05572687  0.59833781    -0.19700
H1320       H  0.71818642  0.06685277  0.65045146     0.18100
H1321       H  0.60565181  0.08657817  0.65054434     0.18100
F1322       F  0.63230707  0.09700710  0.70295737    -0.19700
C1323       C  0.61895517  0.00072979  0.66312791    -0.21100
C1324       C  0.64844157  0.98918643  0.67003775    -0.09100
C1325       C  0.66083710  0.96572971  0.65135126     0.29700
C1326       C  0.64261496  0.95159669  0.62906856    -0.21100
C1327       C  0.61222466  0.96106000  0.62424017    -0.09100
C1328       C  0.60090583  0.98674461  0.64033311     0.29700
F1329       F  0.57107407  0.99559201  0.63685056    -0.19700
H1330       H  0.60899179  0.01904828  0.67679568     0.18100
H1331       H  0.65106343  0.93070678  0.61871068     0.18100
F1332       F  0.68960999  0.95441689  0.65627861    -0.19700
C1333       C  0.45356261  0.16320218  0.68627721    -0.21100
C1334       C  0.43825263  0.18878118  0.67369737    -0.09100
C1335       C  0.42978268  0.18784535  0.64220632     0.29700
C1336       C  0.43361990  0.16076396  0.62496524    -0.21100
C1337       C  0.44527627  0.13399720  0.63884842    -0.09100
C1338       C  0.45772826  0.13643872  0.66890868     0.29700
F1339       F  0.47183023  0.11197096  0.68234001    -0.19700
H1340       H  0.46244266  0.16387320  0.70969823     0.18100
H1341       H  0.42594303  0.16034715  0.60122391     0.18100
F1342       F  0.41691488  0.21270617  0.62830040    -0.19700
C1343       C  0.56931836  0.17126027  0.66082897    -0.21100
C1344       C  0.54030046  0.18242579  0.65188840    -0.09100
C1345       C  0.52556308  0.16918720  0.62603298     0.29700
C1346       C  0.54024558  0.14587856  0.60913562    -0.21100
C1347       C  0.57017954  0.13642667  0.61705339    -0.09100
C1348       C  0.58454201  0.14946485  0.64306994     0.29700
F1349       F  0.61482332  0.14440809  0.64896201    -0.19700
H1350       H  0.58163321  0.18141980  0.68010266     0.18100
H1351       H  0.52949187  0.13731606  0.58820205     0.18100
F1352       F  0.49801045  0.17996066  0.61594286    -0.19700
C1353       C  0.55181762  0.89743947  0.32477285    -0.21100
C1354       C  0.56274774  0.90038447  0.35541648    -0.09100
C1355       C  0.57406320  0.87351521  0.36985973     0.29700
C1356       C  0.57821074  0.84627061  0.35285139    -0.21100
C1357       C  0.57040640  0.84463377  0.32126956    -0.09100
C1358       C  0.55603862  0.87038380  0.30779235     0.29700
F1359       F  0.54528241  0.86937410  0.27830621    -0.19700
H1360       H  0.54091990  0.91670648  0.31329048     0.18100
H1361       H  0.58726277  0.82623042  0.36462166     0.18100
F1362       F  0.58090721  0.87302587  0.40039925    -0.19700
C1363       C  0.43760421  0.85181863  0.34371928    -0.21100
C1364       C  0.46762469  0.84159724  0.34996435    -0.09100
C1365       C  0.48412485  0.85490021  0.37470705     0.29700
C1366       C  0.47011429  0.87696193  0.39361032    -0.21100
C1367       C  0.43935191  0.88537675  0.38854695    -0.09100
C1368       C  0.42330785  0.87282371  0.36322484     0.29700
F1369       F  0.39267894  0.87809579  0.35947759    -0.19700
H1370       H  0.42420407  0.84169296  0.32516772     0.18100
H1371       H  0.48232822  0.88539949  0.41377700     0.18100
F1372       F  0.51303125  0.84533916  0.38176595    -0.19700
C1373       C  0.09344350  0.34089087  0.84410318    -0.21100
C1374       C  0.07159223  0.34082018  0.82016699    -0.09100
C1375       C  0.05055504  0.36537762  0.81811043     0.29700
C1376       C  0.05219796  0.38996754  0.83893892    -0.21100
C1377       C  0.07492553  0.39078844  0.86209548    -0.09100
C1378       C  0.09575145  0.36597505  0.86426467     0.29700
F1379       F  0.12031751  0.36734098  0.88360225    -0.19700
H1380       H  0.10943495  0.32190883  0.84651983     0.18100
H1381       H  0.03681085  0.40935252  0.83586363     0.18100
F1382       F  0.02786164  0.36524527  0.79642869    -0.19700
C1383       C  0.95860419  0.37647404  0.88751736    -0.21100
C1384       C  0.92668844  0.38108179  0.88632121    -0.09100
C1385       C  0.90904825  0.36442439  0.86465992     0.29700
C1386       C  0.92293301  0.34283708  0.84532796    -0.21100
C1387       C  0.95455827  0.33663726  0.84774103    -0.09100
C1388       C  0.97249870  0.35422587  0.86860765     0.29700
F1389       F  0.00326945  0.34935157  0.87144996    -0.19700
H1390       H  0.97244312  0.38871995  0.90437268     0.18100
H1391       H  0.90856714  0.32982402  0.82954138     0.18100
F1392       F  0.87797151  0.36796741  0.86332529    -0.19700
C1393       C  0.85572050  0.43288523  0.82487601    -0.21100
C1394       C  0.82384663  0.43921996  0.82555481    -0.09100
C1395       C  0.81190980  0.45419122  0.85169002     0.29700
C1396       C  0.83078740  0.45998132  0.87732082    -0.21100
C1397       C  0.86153337  0.44926284  0.87849853    -0.09100
C1398       C  0.87446284  0.43813218  0.85085458     0.29700
F1399       F  0.90489246  0.43148461  0.84889765    -0.19700
H1400       H  0.86616206  0.42338413  0.80426037     0.18100
H1401       H  0.82046882  0.47050510  0.89749677     0.18100
F1402       F  0.78197303  0.46321396  0.85265504    -0.19700
C1403       C  0.84375303  0.57475780  0.83967125    -0.21100
C1404       C  0.85372992  0.54562789  0.82979377    -0.09100
C1405       C  0.87992093  0.53251032  0.84405879     0.29700
C1406       C  0.89605745  0.54883480  0.86698192    -0.21100
C1407       C  0.88666782  0.57851906  0.87540413    -0.09100
C1408       C  0.86030257  0.59124522  0.86161341     0.29700
F1409       F  0.85187489  0.62070378  0.86760551    -0.19700
H1410       H  0.82389236  0.58574685  0.82922519     0.18100
H1411       H  0.91704464  0.53922417  0.87657807     0.18100
F1412       F  0.89082976  0.50476108  0.83493318    -0.19700
C1413       C  0.13101377  0.34367760  0.04409259    -0.21100
C1414       C  0.12782584  0.37045876  0.06213785    -0.09100
C1415       C  0.15156410  0.37730152  0.08346313     0.29700
C1416       C  0.17716969  0.35796977  0.08669288    -0.21100
C1417       C  0.17912388  0.33034309  0.07021823    -0.09100
C1418       C  0.15599564  0.32358907  0.04835684     0.29700
F1419       F  0.15762393  0.29774147  0.03086321    -0.19700
H1420       H  0.11269610  0.33704218  0.02837942     0.18100
H1421       H  0.19489578  0.36388988  0.10335729     0.18100
F1422       F  0.14870034  0.40048021  0.10394562    -0.19700
C1423       C  0.12233327  0.38372081  0.94894061    -0.21100
C1424       C  0.13100708  0.41438631  0.94442232    -0.09100
C1425       C  0.15564101  0.42642613  0.96186522     0.29700
C1426       C  0.17435489  0.40685432  0.97930310    -0.21100
C1427       C  0.16887458  0.37510253  0.97917640    -0.09100
C1428       C  0.14154787  0.36392005  0.96560729     0.29700
F1429       F  0.13455800  0.33354295  0.96663227    -0.19700
H1430       H  0.10239739  0.37434797  0.93718530     0.18100
H1431       H  0.19472400  0.41616154  0.99040498     0.18100
F1432       F  0.16289673  0.45672062  0.96023191    -0.19700
C1433       C  0.93718692  0.14951510  0.86151798    -0.21100
C1434       C  0.95002583  0.12108034  0.85266062    -0.09100
C1435       C  0.96519591  0.11944602  0.82403916     0.29700
C1436       C  0.96384810  0.14385549  0.80340167    -0.21100
C1437       C  0.95017860  0.17207078  0.81156077    -0.09100
C1438       C  0.93706292  0.17479884  0.84112642     0.29700
F1439       F  0.92569544  0.20217609  0.85088393    -0.19700
H1440       H  0.92675461  0.15209262  0.88400466     0.18100
H1441       H  0.97562634  0.14136397  0.78146386     0.18100
F1442       F  0.98078498  0.09370848  0.81561838    -0.19700
C1443       C  0.87586347  0.04998767  0.80936448    -0.21100
C1444       C  0.87834505  0.03749230  0.83967543    -0.09100
C1445       C  0.85221251  0.02204707  0.85113154     0.29700
C1446       C  0.82367571  0.02489821  0.83605618    -0.21100
C1447       C  0.82059300  0.04218958  0.80858799    -0.09100
C1448       C  0.84746108  0.05278402  0.79434762     0.29700
F1449       F  0.84631600  0.06725049  0.76655528    -0.19700
H1450       H  0.89485613  0.06077533  0.79771856     0.18100
H1451       H  0.80363133  0.01485376  0.84696203     0.18100
F1452       F  0.85301157  0.00870077  0.87946552    -0.19700
C1453       C  0.04310766  0.14245675  0.88946868    -0.21100
C1454       C  0.07419099  0.13385786  0.88977697    -0.09100
C1455       C  0.09438984  0.14635371  0.86758449     0.29700
C1456       C  0.08377682  0.16749405  0.84601470    -0.21100
C1457       C  0.05349785  0.17817581  0.84754816    -0.09100
C1458       C  0.03284687  0.16494907  0.86878586     0.29700
F1459       F  0.00329805  0.17494816  0.87063316    -0.19700
H1460       H  0.02759638  0.13406199  0.90714355     0.18100
H1461       H  0.10003187  0.17776699  0.83010063     0.18100
F1462       F  0.12525606  0.14172711  0.86965134    -0.19700
C1463       C  0.13252273  0.18215739  0.97989455    -0.21100
C1464       C  0.14625699  0.15320751  0.97422527    -0.09100
C1465       C  0.17892675  0.15221306  0.97475972     0.29700
C1466       C  0.19635482  0.17934248  0.97402235    -0.21100
C1467       C  0.18206419  0.20823473  0.97465847    -0.09100
C1468       C  0.15007810  0.20927738  0.97972733     0.29700
F1469       F  0.13585195  0.23656086  0.98501807    -0.19700
H1470       H  0.10772847  0.18405256  0.98209264     0.18100
H1471       H  0.22129068  0.17776910  0.97432173     0.18100
F1472       F  0.19426534  0.12510091  0.97681985    -0.19700
C1473       C  0.35436550  0.03106064  0.66027189    -0.21100
C1474       C  0.36897003  0.05968414  0.65867075    -0.09100
C1475       C  0.35749707  0.08395466  0.67767171     0.29700
C1476       C  0.33179318  0.07995996  0.69636482    -0.21100
C1477       C  0.31587177  0.05230634  0.69597834    -0.09100
C1478       C  0.32791443  0.02739684  0.67863368     0.29700
F1479       F  0.31357019  0.99968473  0.67875012    -0.19700
H1480       H  0.36208383  0.01218055  0.64597727     0.18100
H1481       H  0.32299207  0.09934214  0.70936436     0.18100
F1482       F  0.36929976  0.11281292  0.67598904    -0.19700
C1483       C  0.12926480  0.07842638  0.86277248    -0.21100
C1484       C  0.14462944  0.07463420  0.89108192    -0.09100
C1485       C  0.17644675  0.06780884  0.89043217     0.29700
C1486       C  0.19301800  0.06951948  0.86275724    -0.21100
C1487       C  0.17821410  0.07720166  0.83487314    -0.09100
C1488       C  0.14578632  0.08029687  0.83503246     0.29700
F1489       F  0.12987226  0.08573070  0.80852356    -0.19700
H1490       H  0.10466618  0.08238494  0.86214842     0.18100
H1491       H  0.21756623  0.06500570  0.86327489     0.18100
F1492       F  0.19186103  0.06105963  0.91693988    -0.19700
C1493       C  0.15363328  0.94493658  0.84584291    -0.21100
C1494       C  0.14666084  0.97466751  0.83538458    -0.09100
C1495       C  0.12092738  0.99004887  0.84784372     0.29700
C1496       C  0.10210866  0.97537524  0.86953008    -0.21100
C1497       C  0.10813436  0.94497201  0.87822314    -0.09100
C1498       C  0.13411303  0.92988968  0.86625830     0.29700
F1499       F  0.13858965  0.89944842  0.87131146    -0.19700
H1500       H  0.17281842  0.93221206  0.83623017     0.18100
H1501       H  0.08134404  0.98673959  0.87743722     0.18100
F1502       F  0.11272257  0.01831769  0.83764657    -0.19700
C1503       C  0.84171712  0.32768089  0.98045217    -0.21100
C1504       C  0.81169277  0.32751008  0.96768656    -0.09100
C1505       C  0.79826491  0.35580919  0.96011979     0.29700
C1506       C  0.81584576  0.38277536  0.96145132    -0.21100
C1507       C  0.84794702  0.38176946  0.96783238    -0.09100
C1508       C  0.85936605  0.35458825  0.98130121     0.29700
F1509       F  0.88921314  0.35282786  0.99068570    -0.19700
H1510       H  0.85230887  0.30661399  0.98851280     0.18100
H1511       H  0.80409064  0.40381367  0.95573305     0.18100
F1512       F  0.76838555  0.35749160  0.95087400    -0.19700
C1513       C  0.82715237  0.16461076  0.08008381    -0.21100
C1514       C  0.83145907  0.18122143  0.05261493    -0.09100
C1515       C  0.85800445  0.17445673  0.03451157     0.29700
C1516       C  0.87918975  0.15224224  0.04372385    -0.21100
C1517       C  0.87568249  0.13689008  0.07167062    -0.09100
C1518       C  0.84936045  0.14303146  0.08983525     0.29700
F1519       F  0.84631116  0.12969716  0.11801756    -0.19700
H1520       H  0.80707091  0.16878719  0.09429404     0.18100
H1521       H  0.89994934  0.14898654  0.03020381     0.18100
F1522       F  0.86441154  0.18984039  0.00797600    -0.19700
C1523       C  0.84209524  0.16347780  0.90728465    -0.21100
C1524       C  0.83097104  0.15889940  0.93719115    -0.09100
C1525       C  0.84391029  0.13582833  0.95596089     0.29700
C1526       C  0.86765059  0.11735881  0.94459939    -0.21100
C1527       C  0.87762859  0.12090878  0.91409217    -0.09100
C1528       C  0.86443065  0.14392052  0.89536737     0.29700
F1529       F  0.87121146  0.14580895  0.86481714    -0.19700
H1530       H  0.83200093  0.18088005  0.89247206     0.18100
H1531       H  0.87659986  0.09883679  0.95875506     0.18100
F1532       F  0.83308667  0.13068582  0.98490710    -0.19700
C1533       C  0.09351569  0.83859769  0.16620676    -0.21100
C1534       C  0.06610323  0.82266903  0.16100495    -0.09100
C1535       C  0.04612417  0.83302384  0.13730008     0.29700
C1536       C  0.05096812  0.86146672  0.12277871    -0.21100
C1537       C  0.07624776  0.87954195  0.13115956    -0.09100
C1538       C  0.09904630  0.86635820  0.15080227     0.29700
F1539       F  0.12547814  0.88173994  0.15742331    -0.19700
H1540       H  0.10926018  0.83112414  0.18417294     0.18100
H1541       H  0.03369246  0.87043314  0.10706419     0.18100
F1542       F  0.01992828  0.81723732  0.13083915    -0.19700
C1543       C  0.95067827  0.65468187  0.19291333    -0.21100
C1544       C  0.93864426  0.68098379  0.17840345    -0.09100
C1545       C  0.93483053  0.68007509  0.14591271     0.29700
C1546       C  0.93977318  0.65264940  0.12933783    -0.21100
C1547       C  0.94782102  0.62530845  0.14467014    -0.09100
C1548       C  0.95598234  0.62757469  0.17626647     0.29700
F1549       F  0.96782901  0.60299018  0.19153187    -0.19700
H1550       H  0.95617181  0.65500862  0.21734849     0.18100
H1551       H  0.93536718  0.65251402  0.10474105     0.18100
F1552       F  0.92578229  0.70545219  0.13006929    -0.19700
C1553       C  0.95987966  0.87110736  0.13966677    -0.21100
C1554       C  0.94185451  0.85219620  0.15872039    -0.09100
C1555       C  0.90985280  0.85595569  0.15933084     0.29700
C1556       C  0.89583416  0.87656118  0.13906033    -0.21100
C1557       C  0.91361999  0.89395612  0.11829136    -0.09100
C1558       C  0.94584366  0.89219549  0.11964281     0.29700
F1559       F  0.96347104  0.90884372  0.09992616    -0.19700
H1560       H  0.98467228  0.86851357  0.13932547     0.18100
H1561       H  0.87089415  0.87793572  0.13847401     0.18100
F1562       F  0.89208936  0.83815529  0.17789037    -0.19700
C1563       C  0.03309151  0.66271456  0.08432656    -0.21100
C1564       C  0.04911180  0.63775208  0.09738887    -0.09100
C1565       C  0.04469258  0.63100267  0.12876369     0.29700
C1566       C  0.03043597  0.65266078  0.14778977    -0.21100
C1567       C  0.01953182  0.68053052  0.13540928    -0.09100
C1568       C  0.01841281  0.68412322  0.10318274     0.29700
F1569       F  0.00646292  0.70986089  0.09009166    -0.19700
H1570       H  0.03494901  0.66752139  0.05982469     0.18100
H1571       H  0.02985296  0.64857688  0.17248726     0.18100
F1572       F  0.05695470  0.60538489  0.14170715    -0.19700
C1573       C  0.63598204  0.11563708  0.03297990    -0.21100
C1574       C  0.62481656  0.12266613  0.06244105    -0.09100
C1575       C  0.63664440  0.14830232  0.07830095     0.29700
C1576       C  0.65959662  0.16623115  0.06504182    -0.21100
C1577       C  0.67240038  0.15806545  0.03644375    -0.09100
C1578       C  0.66002680  0.13273707  0.02025461     0.29700
F1579       F  0.67257877  0.12293054  0.99333890    -0.19700
H1580       H  0.62833551  0.09496942  0.02128114     0.18100
H1581       H  0.66882390  0.18526556  0.07828046     0.18100
F1582       F  0.62907408  0.15357269  0.10826315    -0.19700
C1583       C  0.63511660  0.11252874  0.87536727    -0.21100
C1584       C  0.60872558  0.09584891  0.88360605    -0.09100
C1585       C  0.60259546  0.06768385  0.86932721     0.29700
C1586       C  0.62218788  0.05700447  0.84627158    -0.21100
C1587       C  0.64883961  0.07358828  0.83844719    -0.09100
C1588       C  0.65581099  0.10091677  0.85397741     0.29700
F1589       F  0.68077897  0.11800052  0.84613728    -0.19700
H1590       H  0.63832104  0.13585116  0.88318578     0.18100
H1591       H  0.61594342  0.03632745  0.83383553     0.18100
F1592       F  0.57594818  0.05242689  0.87516719    -0.19700
C1593       C  0.63681051  0.14722000  0.94156585    -0.21100
C1594       C  0.60951373  0.16311832  0.94826160    -0.09100
C1595       C  0.61209477  0.19476171  0.95534441     0.29700
C1596       C  0.63978838  0.21061023  0.95009742    -0.21100
C1597       C  0.66595805  0.19524152  0.93875904    -0.09100
C1598       C  0.66442820  0.16296240  0.93595327     0.29700
F1599       F  0.68935214  0.14638497  0.92694099    -0.19700
H1600       H  0.63653696  0.12263147  0.93819903     0.18100
H1601       H  0.64065509  0.23501779  0.95486967     0.18100
F1602       F  0.58757921  0.21065008  0.96647494    -0.19700
C1603       C  0.55310039  0.19511221  0.86074754    -0.21100
C1604       C  0.53100544  0.17375196  0.87214191    -0.09100
C1605       C  0.50370198  0.16998570  0.85515199     0.29700
C1606       C  0.49949114  0.18601675  0.82731582    -0.21100
C1607       C  0.52237934  0.20600153  0.81536630    -0.09100
C1608       C  0.54901508  0.21080316  0.83288058     0.29700
F1609       F  0.57151236  0.23001539  0.82287729    -0.19700
H1610       H  0.57509273  0.19793389  0.87230135     0.18100
H1611       H  0.47836393  0.18193643  0.81457726     0.18100
F1612       F  0.48186858  0.14962290  0.86407987    -0.19700
C1613       C  0.34815662  0.15816083  0.99973221    -0.21100
C1614       C  0.33531234  0.13331408  0.01621763    -0.09100
C1615       C  0.30425268  0.13703306  0.02593584     0.29700
C1616       C  0.29116719  0.16639686  0.02820848    -0.21100
C1617       C  0.30741910  0.19243541  0.01841111    -0.09100
C1618       C  0.33511063  0.18766217  0.00189253     0.29700
F1619       F  0.35094780  0.21167347  0.98979565    -0.19700
H1620       H  0.37120908  0.15611879  0.99036812     0.18100
H1621       H  0.26824005  0.16869855  0.03780541     0.18100
F1622       F  0.28612997  0.11280302  0.03327221    -0.19700
C1623       C  0.49494377  0.85745938  0.14414017    -0.21100
C1624       C  0.46460776  0.85729211  0.13322543    -0.09100
C1625       C  0.44265681  0.83858950  0.14888924     0.29700
C1626       C  0.45068441  0.82145730  0.17484857    -0.21100
C1627       C  0.48062931  0.82236762  0.18643975    -0.09100
C1628       C  0.50297161  0.84031358  0.17046589     0.29700
F1629       F  0.53256660  0.84212668  0.18059069    -0.19700
H1630       H  0.51220081  0.87164668  0.13317308     0.18100
H1631       H  0.43310750  0.80798799  0.18630019     0.18100
F1632       F  0.41257826  0.83813592  0.14004221    -0.19700
C1633       C  0.64505616  0.91657158  0.85364463    -0.21100
C1634       C  0.63020573  0.93724744  0.87413769    -0.09100
C1635       C  0.63345277  0.96865296  0.86928550     0.29700
C1636       C  0.65320574  0.97919214  0.84626374    -0.21100
C1637       C  0.66978565  0.95887194  0.82688535    -0.09100
C1638       C  0.66453144  0.92726784  0.82995730     0.29700
F1639       F  0.67978838  0.90685417  0.81187398    -0.19700
H1640       H  0.64292918  0.89203217  0.85722376     0.18100
H1641       H  0.65669190  0.00366708  0.84456955     0.18100
F1642       F  0.61996720  0.98911981  0.88870213    -0.19700
C1643       C  0.35283232  0.99885828  0.84688554    -0.21100
C1644       C  0.36290187  0.96842110  0.84808447    -0.09100
C1645       C  0.34607665  0.94584996  0.83121528     0.29700
C1646       C  0.32001601  0.95359322  0.81401967    -0.21100
C1647       C  0.30972949  0.98390507  0.81306184    -0.09100
C1648       C  0.32657400  0.00662348  0.82970134     0.29700
F1649       F  0.31757948  0.03650401  0.82996057    -0.19700
H1650       H  0.36481033  0.01667760  0.85950225     0.18100
H1651       H  0.30776189  0.93571421  0.80164579     0.18100
F1652       F  0.35454935  0.91579476  0.83190596    -0.19700
C1653       C  0.15520304  0.67676561  0.06415932    -0.21100
C1654       C  0.14609085  0.65553317  0.04094578    -0.09100
C1655       C  0.15901115  0.65866272  0.01139653     0.29700
C1656       C  0.17978643  0.68275226  0.00550437    -0.21100
C1657       C  0.18832900  0.70396451  0.02889654    -0.09100
C1658       C  0.17594043  0.70039608  0.05838979     0.29700
F1659       F  0.18288948  0.72035955  0.08148894    -0.19700
H1660       H  0.14601916  0.67493618  0.08736508     0.18100
H1661       H  0.18912431  0.68490061  0.98240764     0.18100
F1662       F  0.15203153  0.63877512  0.98831911    -0.19700
C1663       C  0.33013527  0.85586925  0.06126513    -0.21100
C1664       C  0.33253798  0.82384979  0.05721150    -0.09100
C1665       C  0.36168713  0.81172857  0.04938661     0.29700
C1666       C  0.38754132  0.83063455  0.04752547    -0.21100
C1667       C  0.38606485  0.86199360  0.05525604    -0.09100
C1668       C  0.35653708  0.87481764  0.06002592     0.29700
F1669       F  0.35297522  0.90552140  0.06378395    -0.19700
H1670       H  0.30782374  0.86630059  0.06522266     0.18100
H1671       H  0.40945947  0.82007332  0.04199757     0.18100
F1672       F  0.36564148  0.78125809  0.04391844    -0.19700
C1673       C  0.14365626  0.82402909  0.94598707    -0.21100
C1674       C  0.17105533  0.84016970  0.93997236    -0.09100
C1675       C  0.16914699  0.87237705  0.93613932     0.29700
C1676       C  0.14051874  0.88731649  0.93597684    -0.21100
C1677       C  0.11299930  0.87067809  0.93902946    -0.09100
C1678       C  0.11510273  0.83906439  0.94610843     0.29700
F1679       F  0.08945147  0.82249621  0.95276605    -0.19700
H1680       H  0.14430049  0.79970932  0.95123428     0.18100
H1681       H  0.14001685  0.91174550  0.93145971     0.18100
F1682       F  0.19486917  0.88962153  0.93206948    -0.19700
C1683       C  0.38031306  0.90458443  0.95791186    -0.21100
C1684       C  0.39046210  0.89539183  0.92858554    -0.09100
C1685       C  0.38052426  0.86711702  0.91641692     0.29700
C1686       C  0.36127907  0.84821604  0.93351735    -0.21100
C1687       C  0.34907636  0.85861923  0.96145529    -0.09100
C1688       C  0.35871166  0.88684481  0.97376861     0.29700
F1689       F  0.34532825  0.89841829  0.99950814    -0.19700
H1690       H  0.38613594  0.92718530  0.96667624     0.18100
H1691       H  0.35292519  0.82709773  0.92317725     0.18100
F1692       F  0.38512697  0.85999884  0.88629369    -0.19700
C1693       C  0.12991318  0.87833014  0.06386625    -0.21100
C1694       C  0.13645050  0.90956630  0.06800615    -0.09100
C1695       C  0.16410299  0.92169253  0.05636743     0.29700
C1696       C  0.18618828  0.90226768  0.04363608    -0.21100
C1697       C  0.18100642  0.87049570  0.04223907    -0.09100
C1698       C  0.15200983  0.85881637  0.05105482     0.29700
F1699       F  0.14532046  0.82847190  0.04826068    -0.19700
H1700       H  0.10861556  0.86861353  0.07243554     0.18100
H1701       H  0.20792845  0.91197841  0.03622572     0.18100
F1702       F  0.17041761  0.95214388  0.05885106    -0.19700
C1703       C  0.17797435  0.99879476  0.16869226    -0.21100
C1704       C  0.18433757  0.98104968  0.19527425    -0.09100
C1705       C  0.16061611  0.96276124  0.20719964     0.29700
C1706       C  0.13290541  0.95935030  0.19078466    -0.21100
C1707       C  0.12833128  0.97347708  0.16150299    -0.09100
C1708       C  0.15029056  0.99547380  0.15230970     0.29700
F1709       F  0.14706266  0.01046991  0.12497482    -0.19700
H1710       H  0.19514107  0.01429349  0.15943808     0.18100
H1711       H  0.11652976  0.94370917  0.20068732     0.18100
F1712       F  0.16456628  0.94697270  0.23398139    -0.19700
C1713       C  0.31157281  0.10222038  0.15111728    -0.21100
C1714       C  0.32486855  0.08461842  0.17448020    -0.09100
C1715       C  0.35371425  0.07082766  0.16890422     0.29700
C1716       C  0.36619004  0.07001205  0.13895053    -0.21100
C1717       C  0.35129508  0.08496948  0.11441810    -0.09100
C1718       C  0.32514559  0.10357439  0.12185134     0.29700
F1719       F  0.31188619  0.12276856  0.10096719    -0.19700
H1720       H  0.28947105  0.11320490  0.15483253     0.18100
H1721       H  0.38710728  0.05713124  0.13478436     0.18100
F1722       F  0.36806601  0.05531259  0.19201860    -0.19700
C1723       C  0.36120969  0.94504499  0.32940007    -0.21100
C1724       C  0.32904685  0.94977783  0.33022510    -0.09100
C1725       C  0.31541166  0.95629959  0.35898566     0.29700
C1726       C  0.33308167  0.95562701  0.38608336    -0.21100
C1727       C  0.36460751  0.94764115  0.38555136    -0.09100
C1728       C  0.37888293  0.94446851  0.35658785     0.29700
F1729       F  0.40961084  0.93940209  0.35430551    -0.19700
H1730       H  0.37288986  0.94174431  0.30755646     0.18100
H1731       H  0.32156874  0.95961873  0.40791099     0.18100
F1732       F  0.28500591  0.96333395  0.36115457    -0.19700
C1733       C  0.39627896  0.96590581  0.12852194     0.06100
C1734       C  0.38852930  0.93663612  0.11765450    -0.09100
C1735       C  0.36233912  0.92168615  0.12938939     0.29700
C1736       C  0.34384834  0.93612615  0.15108378    -0.21100
C1737       C  0.35265587  0.96445434  0.16344768    -0.09100
C1738       C  0.37895732  0.97942556  0.15198530     0.29700
F1739       F  0.38890565  0.00612661  0.16452646    -0.19700
H1740       H  0.41746978  0.97680724  0.12112235     0.18100
H1741       H  0.32414514  0.92389547  0.16027257     0.18100
F1742       F  0.35691824  0.89165079  0.12312273    -0.19700
C1743       C  0.34871778  0.08548586  0.34194924    -0.21100
C1744       C  0.35638731  0.05688012  0.32923282    -0.09100
C1745       C  0.38150670  0.04034191  0.34171438     0.29700
C1746       C  0.39921977  0.05307994  0.36560455    -0.21100
C1747       C  0.39241089  0.08248525  0.37684796    -0.09100
C1748       C  0.36695744  0.09851618  0.36486827     0.29700
F1749       F  0.36181704  0.12824092  0.37273616    -0.19700
H1750       H  0.32981284  0.09889107  0.33263062     0.18100
H1751       H  0.41959965  0.04106370  0.37364670     0.18100
F1752       F  0.38978412  0.01260575  0.33005085    -0.19700
C1753       C  0.56683471  0.86413322  0.66984033    -0.21100
C1754       C  0.54398252  0.87567226  0.64931120    -0.09100
C1755       C  0.51351981  0.86579169  0.65320900     0.29700
C1756       C  0.50676445  0.84393261  0.67592695    -0.21100
C1757       C  0.53005390  0.83140491  0.69529224    -0.09100
C1758       C  0.56014412  0.84219990  0.69222036     0.29700
F1759       F  0.58319581  0.83157353  0.71060056    -0.19700
H1760       H  0.59063853  0.87130386  0.66755649     0.18100
H1761       H  0.48303600  0.83652298  0.67800343     0.18100
F1762       F  0.49034446  0.87628452  0.63500376    -0.19700
C1763       C  0.43972369  0.83848805  0.84559007    -0.21100
C1764       C  0.43678296  0.83862331  0.81308521    -0.09100
C1765       C  0.44158040  0.86664980  0.79761733     0.29700
C1766       C  0.44618287  0.89381539  0.81435307    -0.21100
C1767       C  0.44448720  0.89435365  0.84698319    -0.09100
C1768       C  0.44429762  0.86583379  0.86231387     0.29700
F1769       F  0.44660556  0.86416440  0.89352368    -0.19700
H1770       H  0.43826455  0.81711503  0.85829609     0.18100
H1771       H  0.44881701  0.91497767  0.80148902     0.18100
F1772       F  0.44105098  0.86819111  0.76628082    -0.19700
C1773       C  0.51862586  0.83704408  0.88581058    -0.21100
C1774       C  0.52664804  0.83766275  0.85442175    -0.09100
C1775       C  0.54318556  0.86297543  0.84280138     0.29700
C1776       C  0.55498777  0.88497129  0.86313265    -0.21100
C1777       C  0.55045159  0.88176479  0.89501465    -0.09100
C1778       C  0.53045722  0.85892235  0.90603222     0.29700
F1779       F  0.52533935  0.85570872  0.93681607    -0.19700
H1780       H  0.50507994  0.81835841  0.89517862     0.18100
H1781       H  0.57026443  0.90255249  0.85428719     0.18100
F1782       F  0.54940292  0.86557687  0.81216711    -0.19700
C1783       C  0.46267129  0.38417018  0.60132509    -0.21100
C1784       C  0.43582841  0.39983095  0.61026384    -0.09100
C1785       C  0.42362213  0.39489140  0.63985989     0.29700
C1786       C  0.43693125  0.37330353  0.65934565    -0.21100
C1787       C  0.46132996  0.35502402  0.64891109    -0.09100
C1788       C  0.47500252  0.36127123  0.62024198     0.29700
F1789       F  0.49909732  0.34425241  0.60990480    -0.19700
H1790       H  0.47168715  0.38697412  0.57815403     0.18100
H1791       H  0.42604082  0.36865136  0.68137285     0.18100
F1792       F  0.39591043  0.40666566  0.64795990    -0.19700
C1793       C  0.42355776  0.69037636  0.34345063    -0.21100
C1794       C  0.45010536  0.68598299  0.32553530    -0.09100
C1795       C  0.46931292  0.66049366  0.33253146     0.29700
C1796       C  0.46158406  0.63969212  0.35579089    -0.21100
C1797       C  0.43389697  0.64258385  0.37182279    -0.09100
C1798       C  0.41504235  0.66845156  0.36577150     0.29700
F1799       F  0.38682543  0.67074844  0.37904335    -0.19700
H1800       H  0.40846400  0.70968525  0.33889188     0.18100
H1801       H  0.47570856  0.61937121  0.35893881     0.18100
F1802       F  0.49512551  0.65454309  0.31596373    -0.19700
C1803       C  0.49302507  0.67917366  0.66734205    -0.21100
C1804       C  0.47554686  0.70618069  0.67176504    -0.09100
C1805       C  0.46135682  0.71946265  0.64594372     0.29700
C1806       C  0.46096960  0.70391904  0.61770160    -0.21100
C1807       C  0.47446936  0.67436968  0.61424215    -0.09100
C1808       C  0.49282577  0.66361780  0.63895313     0.29700
F1809       F  0.50674557  0.63573284  0.63731472    -0.19700
H1810       H  0.50550863  0.66890345  0.68644084     0.18100
H1811       H  0.44699868  0.71437695  0.60000192     0.18100
F1812       F  0.44603358  0.74656070  0.64826809    -0.19700
C1813       C  0.54002267  0.38978589  0.65463400    -0.21100
C1814       C  0.56217857  0.38677051  0.63133506    -0.09100
C1815       C  0.57977598  0.35944876  0.63053775     0.29700
C1816       C  0.57554417  0.33621421  0.65284666    -0.21100
C1817       C  0.55517155  0.34057526  0.67764886    -0.09100
C1818       C  0.53717405  0.36775500  0.67792075     0.29700
F1819       F  0.51729829  0.37390684  0.70130124    -0.19700
H1820       H  0.52713119  0.41102395  0.65674908     0.18100
H1821       H  0.58961468  0.31568859  0.65179805     0.18100
F1822       F  0.60354731  0.35663485  0.61058086    -0.19700
C1823       C  0.65979631  0.48778307  0.63890049    -0.21100
C1824       C  0.63206922  0.47486892  0.64945104    -0.09100
C1825       C  0.63017254  0.46888801  0.68170942     0.29700
C1826       C  0.65696817  0.46737093  0.70005076    -0.21100
C1827       C  0.68585981  0.47435585  0.68743576    -0.09100
C1828       C  0.68644539  0.48700528  0.65720941     0.29700
F1829       F  0.71304010  0.49731768  0.64440115    -0.19700
H1830       H  0.66183659  0.49512378  0.61505951     0.18100
H1831       H  0.65506229  0.46070292  0.72408798     0.18100
F1832       F  0.60256501  0.46450729  0.69570253    -0.19700
C1833       C  0.57528838  0.62653975  0.36606576    -0.21100
C1834       C  0.57331645  0.63336316  0.39765624    -0.09100
C1835       C  0.55605434  0.65884103  0.40733048     0.29700
C1836       C  0.54518711  0.67975734  0.38570799    -0.21100
C1837       C  0.55134363  0.67558826  0.35412027    -0.09100
C1838       C  0.56489956  0.64784090  0.34423471     0.29700
F1839       F  0.56996058  0.64212411  0.31381930    -0.19700
H1840       H  0.58765991  0.60638132  0.35825580     0.18100
H1841       H  0.53333746  0.70005948  0.39397370     0.18100
F1842       F  0.55188357  0.66475878  0.43786824    -0.19700
C1843       C  0.14308472  0.47482893  0.81707899    -0.21100
C1844       C  0.14348740  0.47991821  0.84948150    -0.09100
C1845       C  0.16896432  0.49586968  0.86183819     0.29700
C1846       C  0.19477691  0.50186852  0.84348055    -0.21100
C1847       C  0.19564278  0.49274307  0.81227260    -0.09100
C1848       C  0.16910929  0.48029098  0.79891471     0.29700
F1849       F  0.16786516  0.47465367  0.76806031    -0.19700
H1850       H  0.12280840  0.46646899  0.80529256     0.18100
H1851       H  0.21434272  0.51354943  0.85374937     0.18100
F1852       F  0.16954301  0.50438010  0.89203790    -0.19700
C1853       C  0.34848690  0.46842715  0.66179207    -0.21100
C1854       C  0.31614272  0.46894098  0.65958173    -0.09100
C1855       C  0.30265475  0.46696006  0.63012478     0.29700
C1856       C  0.32084884  0.46198909  0.60403394    -0.21100
C1857       C  0.35311899  0.45833097  0.60640918    -0.09100
C1858       C  0.36688482  0.46392483  0.63542758     0.29700
F1859       F  0.39794957  0.46504521  0.63862869    -0.19700
H1860       H  0.35958265  0.47313108  0.68375995     0.18100
H1861       H  0.30937042  0.46028630  0.58184290     0.18100
F1862       F  0.27177346  0.47071924  0.62647981    -0.19700
C1863       C  0.36884117  0.61984406  0.62761531    -0.21100
C1864       C  0.39136947  0.59958197  0.61628201    -0.09100
C1865       C  0.39101203  0.56868024  0.62508074     0.29700
C1866       C  0.36945069  0.55870704  0.64673122    -0.21100
C1867       C  0.34781833  0.57938106  0.65909227    -0.09100
C1868       C  0.34668730  0.60967997  0.64839175     0.29700
F1869       F  0.32597657  0.63001271  0.65998449    -0.19700
H1870       H  0.36937035  0.64394867  0.62140056     0.18100
H1871       H  0.37030615  0.53513617  0.65472478     0.18100
F1872       F  0.41289559  0.54892297  0.61472425    -0.19700
C1873       C  0.37062483  0.35819985  0.05427731    -0.21100
C1874       C  0.34055486  0.36847585  0.04752278    -0.09100
C1875       C  0.33443932  0.40025880  0.04882674     0.29700
C1876       C  0.35626020  0.42028062  0.06073817    -0.21100
C1877       C  0.38437746  0.40932112  0.07234454    -0.09100
C1878       C  0.39282925  0.37873416  0.06585637     0.29700
F1879       F  0.42137904  0.36802549  0.07292418    -0.19700
H1880       H  0.37660641  0.33417935  0.05172489     0.18100
H1881       H  0.35001908  0.44425299  0.06336671     0.18100
F1882       F  0.30678933  0.41216126  0.04019644    -0.19700
C1883       C  0.56510410  0.68344049  0.85199643    -0.21100
C1884       C  0.56363413  0.68073820  0.81953975    -0.09100
C1885       C  0.56524927  0.65115757  0.80667706     0.29700
C1886       C  0.56851667  0.62531567  0.82542207    -0.21100
C1887       C  0.57183000  0.62769247  0.85780944    -0.09100
C1888       C  0.56886697  0.65723670  0.87101646     0.29700
F1889       F  0.56852883  0.66092213  0.90211724    -0.19700
H1890       H  0.56132990  0.70560236  0.86273634     0.18100
H1891       H  0.56867413  0.60308497  0.81419427     0.18100
F1892       F  0.56169271  0.64704673  0.77573181    -0.19700
C1893       C  0.67516516  0.50825867  0.83056580    -0.21100
C1894       C  0.69596693  0.53056222  0.81908016    -0.09100
C1895       C  0.69300230  0.56088188  0.82916450     0.29700
C1896       C  0.66994342  0.56859500  0.85004996    -0.21100
C1897       C  0.64863511  0.54660659  0.86145391    -0.09100
C1898       C  0.65162289  0.51610680  0.85136029     0.29700
F1899       F  0.63158093  0.49405685  0.86042288    -0.19700
H1900       H  0.67681676  0.48456435  0.82309781     0.18100
H1901       H  0.66808176  0.59250682  0.85679055     0.18100
F1902       F  0.71241834  0.58317173  0.81910473    -0.19700
C1903       C  0.44976587  0.63673617  0.88576363    -0.21100
C1904       C  0.41829892  0.62998840  0.88373291    -0.09100
C1905       C  0.40033444  0.64323405  0.86003595     0.29700
C1906       C  0.41363570  0.66302170  0.83880205    -0.21100
C1907       C  0.44442653  0.67147915  0.84216779    -0.09100
C1908       C  0.46275273  0.65796529  0.86535804     0.29700
F1909       F  0.49270671  0.66628117  0.86897121    -0.19700
H1910       H  0.46357004  0.62745574  0.90447491     0.18100
H1911       H  0.39925633  0.67378189  0.82136374     0.18100
F1912       F  0.36932643  0.63919469  0.85911041    -0.19700
C1913       C  0.37218849  0.57308890  0.85267546    -0.21100
C1914       C  0.35680396  0.56244252  0.87915135    -0.09100
C1915       C  0.32582845  0.55299799  0.87550339     0.29700
C1916       C  0.30910211  0.56126188  0.84905743    -0.21100
C1917       C  0.32331701  0.57722496  0.82475319    -0.09100
C1918       C  0.35560988  0.58087699  0.82583274     0.29700
F1919       F  0.37093622  0.59394118  0.80188931    -0.19700
H1920       H  0.39650156  0.57838640  0.85358966     0.18100
H1921       H  0.28482240  0.55557311  0.84787880     0.18100
F1922       F  0.31096519  0.53811674  0.89866111    -0.19700
C1923       C  0.31222932  0.64237044  0.93907152    -0.21100
C1924       C  0.33695043  0.63485631  0.95957656    -0.09100
C1925       C  0.34438186  0.65646532  0.98250840     0.29700
C1926       C  0.32869803  0.68444837  0.98399902    -0.21100
C1927       C  0.30541584  0.69236685  0.96240897    -0.09100
C1928       C  0.29653647  0.67043073  0.94064084     0.29700
F1929       F  0.27429812  0.67678609  0.91944947    -0.19700
H1930       H  0.30669286  0.62806550  0.91943225     0.18100
H1931       H  0.33592937  0.70055894  0.00166956     0.18100
F1932       F  0.36894954  0.65219804  0.00148879    -0.19700
C1933       C  0.35153819  0.37356798  0.90366671    -0.21100
C1934       C  0.36442034  0.39102461  0.92828624    -0.09100
C1935       C  0.34762814  0.39350179  0.95566298     0.29700
C1936       C  0.32107865  0.37557820  0.95977145    -0.21100
C1937       C  0.31141124  0.35414408  0.93720377    -0.09100
C1938       C  0.32586925  0.35449923  0.90836752     0.29700
F1939       F  0.31746339  0.33420293  0.88607608    -0.19700
H1940       H  0.36362080  0.37188713  0.88185400     0.18100
H1941       H  0.30985143  0.37609739  0.98198892     0.18100
F1942       F  0.35865694  0.41048894  0.97955624    -0.19700
C1943       C  0.40540258  0.46838225  0.83977956    -0.21100
C1944       C  0.39147776  0.45538479  0.86596886    -0.09100
C1945       C  0.35963885  0.45939985  0.87041601     0.29700
C1946       C  0.34173950  0.47343882  0.84738490    -0.21100
C1947       C  0.35551757  0.48450924  0.82020241    -0.09100
C1948       C  0.38770666  0.48311550  0.81723816     0.29700
F1949       F  0.40184449  0.49395447  0.79149927    -0.19700
H1950       H  0.42993443  0.46565922  0.83601675     0.18100
H1951       H  0.31702664  0.47515089  0.85049572     0.18100
F1952       F  0.34548442  0.44796273  0.89583124    -0.19700
C1953       C  0.42943362  0.33590030  0.86406027    -0.21100
C1954       C  0.45100932  0.35922210  0.87239478    -0.09100
C1955       C  0.47735750  0.36220262  0.85384135     0.29700
C1956       C  0.48134544  0.34333815  0.82791532    -0.21100
C1957       C  0.45898113  0.32129183  0.81920579    -0.09100
C1958       C  0.43364391  0.31688145  0.83841063     0.29700
F1959       F  0.41148647  0.29610384  0.83102831    -0.19700
H1960       H  0.40746826  0.33364719  0.87542108     0.18100
H1961       H  0.50149632  0.34714464  0.81369765     0.18100
F1962       F  0.49782205  0.38523641  0.85884836    -0.19700
C1963       C  0.56010904  0.70625744  0.12396236    -0.21100
C1964       C  0.53819538  0.68293737  0.11645840    -0.09100
C1965       C  0.51495341  0.67728638  0.13833430     0.29700
C1966       C  0.51593886  0.69154285  0.16747565    -0.21100
C1967       C  0.54000481  0.71191242  0.17572460    -0.09100
C1968       C  0.56113632  0.72028730  0.15299266     0.29700
F1969       F  0.58461830  0.73986061  0.15956025    -0.19700
H1970       H  0.57952103  0.71106705  0.10917118     0.18100
H1971       H  0.49839055  0.68550828  0.18416400     0.18100
F1972       F  0.49309113  0.65568743  0.13290338    -0.19700
C1973       C  0.64871360  0.34215599  0.06289636    -0.21100
C1974       C  0.63932276  0.36352208  0.03977847    -0.09100
C1975       C  0.65385234  0.36191155  0.01093369     0.29700
C1976       C  0.67659690  0.33954812  0.00560779    -0.21100
C1977       C  0.68561667  0.31816284  0.02874740    -0.09100
C1978       C  0.67139001  0.31994889  0.05758966     0.29700
F1979       F  0.67885450  0.29999052  0.08052174    -0.19700
H1980       H  0.63886919  0.34326436  0.08586270     0.18100
H1981       H  0.68719737  0.33898118  0.98297281     0.18100
F1982       F  0.64712254  0.38225939  0.98819642    -0.19700
C1983       C  0.00825490  0.67553632  0.32091929    -0.21100
C1984       C  0.03180022  0.68851616  0.30234085    -0.09100
C1985       C  0.06244481  0.68182202  0.30988989     0.29700
C1986       C  0.06912246  0.66328209  0.33549441    -0.21100
C1987       C  0.04563559  0.65045905  0.35440897    -0.09100
C1988       C  0.01492223  0.65683041  0.34649876     0.29700
F1989       F  0.99117230  0.64563680  0.36330242    -0.19700
H1990       H  0.98421068  0.67996552  0.31581693     0.18100
H1991       H  0.09316077  0.65893458  0.34080929     0.18100
F1992       F  0.08601206  0.69332656  0.29288073    -0.19700
C1993       C  0.89581980  0.45650539  0.63036438    -0.21100
C1994       C  0.88984400  0.42721438  0.61838427    -0.09100
C1995       C  0.86532547  0.40978717  0.63033008     0.29700
C1996       C  0.84716144  0.42145594  0.65379866    -0.21100
C1997       C  0.85438977  0.44969578  0.66731464    -0.09100
C1998       C  0.87848196  0.46758527  0.65516975     0.29700
F1999       F  0.88594865  0.49506042  0.66793559    -0.19700
H2000       H  0.91556594  0.46949538  0.62240410     0.18100
H2001       H  0.82893500  0.40721125  0.66312174     0.18100
F2002       F  0.86152812  0.37988234  0.62241729    -0.19700
C2003       C  0.94453095  0.32357466  0.63460167    -0.21100
C2004       C  0.96547206  0.34657391  0.62406836    -0.09100
C2005       C  0.99092696  0.35300318  0.64310831     0.29700
C2006       C  0.99445140  0.33811848  0.67163644    -0.21100
C2007       C  0.97253925  0.31668025  0.68269282    -0.09100
C2008       C  0.94809438  0.30871586  0.66315922     0.29700
F2009       F  0.92660340  0.28795312  0.67223180    -0.19700
H2010       H  0.92340943  0.31885766  0.62216079     0.18100
H2011       H  0.01408817  0.34454713  0.68572047     0.18100
F2012       F  0.01113393  0.37551854  0.63565616    -0.19700
C2013       C  0.81957423  0.57183666  0.61516359    -0.21100
C2014       C  0.85215438  0.57011551  0.61320846    -0.09100
C2015       C  0.86827376  0.56259458  0.64058447     0.29700
C2016       C  0.85261963  0.56026441  0.66889083    -0.21100
C2017       C  0.82052830  0.56438155  0.67064028    -0.09100
C2018       C  0.80420932  0.56996142  0.64335029     0.29700
F2019       F  0.77290016  0.57066701  0.64358419    -0.19700
H2020       H  0.80529851  0.57407379  0.59481020     0.18100
H2021       H  0.86528903  0.55280648  0.68917633     0.18100
F2022       F  0.89874106  0.55582457  0.64023338    -0.19700
C2023       C  0.13782868  0.53754437  0.66273847    -0.21100
C2024       C  0.12026766  0.56456277  0.66403287    -0.09100
C2025       C  0.12986829  0.58806810  0.68496433     0.29700
C2026       C  0.15666462  0.58512494  0.70251447    -0.21100
C2027       C  0.17547978  0.55951378  0.69897071    -0.09100
C2028       C  0.16527861  0.53506524  0.67991684     0.29700
F2029       F  0.18255616  0.50922436  0.67691506    -0.19700
H2030       H  0.13173332  0.51933692  0.64684486     0.18100
H2031       H  0.16407508  0.60418996  0.71682820     0.18100
F2032       F  0.11536845  0.61571826  0.68594746    -0.19700
C2033       C  0.97754772  0.68679445  0.82786658    -0.21100
C2034       C  0.95401419  0.70810923  0.82040210    -0.09100
C2035       C  0.92990705  0.71216594  0.84122210     0.29700
C2036       C  0.92796113  0.69334698  0.86728862    -0.21100
C2037       C  0.95069595  0.67067504  0.87433794    -0.09100
C2038       C  0.97584452  0.66815972  0.85417065     0.29700
F2039       F  0.99737533  0.64590317  0.85810929    -0.19700
H2040       H  0.99689482  0.68340935  0.81245781     0.18100
H2041       H  0.90680378  0.69502989  0.88029270     0.18100
F2042       F  0.90683647  0.73240007  0.83519240    -0.19700
C2043       C  0.05582467  0.84785728  0.84433831    -0.21100
C2044       C  0.03305071  0.86431038  0.86117365    -0.09100
C2045       C  0.00226575  0.86144217  0.85168493     0.29700
C2046       C  0.99499307  0.84361266  0.82561993    -0.21100
C2047       C  0.01806086  0.82814765  0.80837010    -0.09100
C2048       C  0.04858582  0.83010754  0.81850204     0.29700
F2049       F  0.07157856  0.81520730  0.80343346    -0.19700
H2050       H  0.07990996  0.84953352  0.85084811     0.18100
H2051       H  0.97102303  0.84237584  0.81868279     0.18100
F2052       F  0.97923265  0.87621194  0.86665997    -0.19700
C2053       C  0.02891762  0.66201105  0.69405629    -0.21100
C2054       C  0.04006747  0.68984297  0.68172458    -0.09100
C2055       C  0.04687619  0.69060029  0.64986292     0.29700
C2056       C  0.04594987  0.66333783  0.63210072    -0.21100
C2057       C  0.03831150  0.63495185  0.64574923    -0.09100
C2058       C  0.02675302  0.63546810  0.67612125     0.29700
F2059       F  0.01558990  0.60947792  0.68937435    -0.19700
H2060       H  0.02149184  0.66061981  0.71789821     0.18100
H2061       H  0.05317164  0.66418976  0.60821927     0.18100
F2062       F  0.05530145  0.71727200  0.63607004    -0.19700
C2063       C  0.96806032  0.66860233  0.61919333    -0.21100
C2064       C  0.95666686  0.66980925  0.64942652    -0.09100
C2065       C  0.93791562  0.64597515  0.66043150     0.29700
C2066       C  0.92695414  0.62384165  0.63994519    -0.21100
C2067       C  0.93558832  0.62460391  0.60879428    -0.09100
C2068       C  0.95822962  0.64557248  0.59914320     0.29700
F2069       F  0.96695852  0.64669346  0.56903433    -0.19700
H2070       H  0.98324475  0.68641607  0.61064992     0.18100
H2071       H  0.90863471  0.60909499  0.64764783     0.18100
F2072       F  0.92700571  0.64631748  0.68982063    -0.19700
C2073       C  0.66872939  0.18940655  0.50642335    -0.21100
C2074       C  0.68726981  0.20373136  0.52931743    -0.09100
C2075       C  0.68879080  0.19039234  0.55861770     0.29700
C2076       C  0.67143061  0.16426422  0.56507138    -0.21100
C2077       C  0.65219647  0.15007895  0.54254547    -0.09100
C2078       C  0.65136964  0.16297158  0.51284531     0.29700
F2079       F  0.63285936  0.15138786  0.49043498    -0.19700
H2080       H  0.66708420  0.19904188  0.48339907     0.18100
H2081       H  0.67206874  0.15569343  0.58857713     0.18100
F2082       F  0.70677071  0.20261194  0.58121660    -0.19700
C2083       C  0.67665326  0.37089253  0.43104363    -0.21100
C2084       C  0.67621082  0.33886013  0.43616325    -0.09100
C2085       C  0.64802607  0.32538282  0.44487351     0.29700
C2086       C  0.62091693  0.34270641  0.44524094    -0.21100
C2087       C  0.62064097  0.37371347  0.43595113    -0.09100
C2088       C  0.64924791  0.38825594  0.43131401     0.29700
F2089       F  0.65079942  0.41881507  0.42552523    -0.19700
H2090       H  0.69821011  0.38252669  0.42643176     0.18100
H2091       H  0.59950191  0.33112287  0.45063618     0.18100
F2092       F  0.64637770  0.29531884  0.45300639    -0.19700
C2093       C  0.85686516  0.31450797  0.54050809    -0.21100
C2094       C  0.82950104  0.32648477  0.55330386    -0.09100
C2095       C  0.82910164  0.35796057  0.56107624     0.29700
C2096       C  0.85627580  0.37576101  0.55887905    -0.21100
C2097       C  0.88431044  0.36250353  0.54922919    -0.09100
C2098       C  0.88326893  0.33248087  0.53722376     0.29700
F2099       F  0.90855425  0.31980961  0.52383653    -0.19700
H2100       H  0.85790390  0.29099180  0.53240280     0.18100
H2101       H  0.85573558  0.39938165  0.56658692     0.18100
F2102       F  0.80293126  0.37131393  0.57170141    -0.19700
C2103       C  0.67844659  0.40299534  0.52870456    -0.21100
C2104       C  0.67414075  0.37106776  0.52906914    -0.09100
C2105       C  0.64498213  0.35932758  0.53718252     0.29700
C2106       C  0.62231934  0.37893413  0.54904727    -0.21100
C2107       C  0.62905531  0.40998529  0.55406128    -0.09100
C2108       C  0.65602137  0.42238963  0.54098058     0.29700
F2109       F  0.66185230  0.45300482  0.54263052    -0.19700
H2110       H  0.70006433  0.41283995  0.52110255     0.18100
H2111       H  0.60068136  0.36933553  0.55673592     0.18100
F2112       F  0.63890960  0.32881453  0.53509659    -0.19700
C2113       C  0.85402610  0.38551942  0.48029979    -0.21100
C2114       C  0.84956340  0.35634998  0.46731606    -0.09100
C2115       C  0.86782924  0.34672207  0.44253169     0.29700
C2116       C  0.88708251  0.36776644  0.42811815    -0.21100
C2117       C  0.89007426  0.39769818  0.43970841    -0.09100
C2118       C  0.87495716  0.40584675  0.46711939     0.29700
F2119       F  0.87689036  0.43496264  0.47822963    -0.19700
H2120       H  0.83975635  0.39329697  0.49924301     0.18100
H2121       H  0.89590827  0.36182057  0.40565670     0.18100
F2122       F  0.86349043  0.31874336  0.42931530    -0.19700
C2123       C  0.14485739  0.97877284  0.63167116    -0.21100
C2124       C  0.12287251  0.95540324  0.63392699    -0.09100
C2125       C  0.12286659  0.93698538  0.66086439     0.29700
C2126       C  0.14554598  0.94086549  0.68385099    -0.21100
C2127       C  0.16990551  0.96155511  0.67934359    -0.09100
C2128       C  0.16896847  0.98073880  0.65295374     0.29700
F2129       F  0.19245325  0.00014471  0.64624205    -0.19700
H2130       H  0.14626878  0.99232269  0.61068899     0.18100
H2131       H  0.14547113  0.92593148  0.70387309     0.18100
F2132       F  0.10395384  0.91232742  0.66291892    -0.19700
C2133       C  0.03530886  0.86181761  0.59098132    -0.21100
C2134       C  0.04769044  0.88825094  0.60496347    -0.09100
C2135       C  0.03879365  0.89564786  0.63523990     0.29700
C2136       C  0.02336872  0.87375192  0.65309935    -0.21100
C2137       C  0.01531334  0.84514195  0.64031592    -0.09100
C2138       C  0.01897997  0.84044574  0.60843032     0.29700
F2139       F  0.01003716  0.81377057  0.59484987    -0.19700
H2140       H  0.04074607  0.85634439  0.56717173     0.18100
H2141       H  0.01925455  0.87844440  0.67733857     0.18100
F2142       F  0.04731748  0.92258805  0.64845667    -0.19700
C2143       C  0.08846861  0.07750534  0.65480059    -0.21100
C2144       C  0.09899400  0.08531800  0.62511318    -0.09100
C2145       C  0.12850664  0.07541301  0.61606195     0.29700
C2146       C  0.14855810  0.06267161  0.63797776    -0.21100
C2147       C  0.13901317  0.05829256  0.66872931    -0.09100
C2148       C  0.10813472  0.06434038  0.67644404     0.29700
F2149       F  0.09711179  0.05908663  0.70531206    -0.19700
H2150       H  0.06517600  0.08298202  0.66189535     0.18100
H2151       H  0.17180622  0.05692910  0.63098899     0.18100
F2152       F  0.13871614  0.07914242  0.58672050    -0.19700
C2153       C  0.03675834  0.20643276  0.61827744    -0.21100
C2154       C  0.02823712  0.17490051  0.61916892    -0.09100
C2155       C  0.01236028  0.16492268  0.64562031     0.29700
C2156       C  0.01305137  0.18265000  0.67260172    -0.21100
C2157       C  0.02800899  0.21151962  0.67349989    -0.09100
C2158       C  0.03747538  0.22428754  0.64536816     0.29700
F2159       F  0.04886219  0.25328848  0.64416601    -0.19700
H2160       H  0.04479115  0.21723988  0.59750085     0.18100
H2161       H  0.00313739  0.17284542  0.69331001     0.18100
F2162       F  0.00077601  0.13597799  0.64701346    -0.19700
C2163       C  0.16037214  0.07653377  0.34182437    -0.21100
C2164       C  0.14146259  0.05204481  0.35245075    -0.09100
C2165       C  0.14805688  0.02230507  0.34211188     0.29700
C2166       C  0.17317913  0.01744117  0.32233844    -0.21100
C2167       C  0.19225438  0.04200804  0.31241484    -0.09100
C2168       C  0.18510797  0.07174775  0.32200300     0.29700
F2169       F  0.20245097  0.09613688  0.31312881    -0.19700
H2170       H  0.15594224  0.09990314  0.34926944     0.18100
H2171       H  0.17791976  0.99410017  0.31508379     0.18100
F2172       F  0.13090408  0.99794191  0.35116416    -0.19700
C2173       C  0.93023864  0.89782212  0.67567222    -0.21100
C2174       C  0.92910909  0.89816738  0.64300205    -0.09100
C2175       C  0.92986957  0.86953945  0.62780687     0.29700
C2176       C  0.92651879  0.84207951  0.64468161    -0.21100
C2177       C  0.92351915  0.84228307  0.67719404    -0.09100
C2178       C  0.92656788  0.87064455  0.69248875     0.29700
F2179       F  0.92561352  0.87243718  0.72380532    -0.19700
H2180       H  0.93220546  0.91905956  0.68855539     0.18100
H2181       H  0.92645664  0.82053386  0.63215197     0.18100
F2182       F  0.93291707  0.86778535  0.59668537    -0.19700
C2183       C  0.84731374  0.00821614  0.64871363    -0.21100
C2184       C  0.85226490  0.97737183  0.64133247    -0.09100
C2185       C  0.83270387  0.95487087  0.65500800     0.29700
C2186       C  0.80940861  0.96298975  0.67544662    -0.21100
C2187       C  0.80462892  0.99363463  0.68320099    -0.09100
C2188       C  0.82382509  0.01637878  0.66945716     0.29700
F2189       F  0.82039349  0.04662115  0.67632571    -0.19700
H2190       H  0.86189445  0.02593346  0.63909772     0.18100
H2191       H  0.79512896  0.94509692  0.68528272     0.18100
F2192       F  0.83664951  0.92444286  0.64915573    -0.19700
C2193       C  0.81471399  0.14177040  0.43454304    -0.21100
C2194       C  0.83890984  0.13286814  0.45502817    -0.09100
C2195       C  0.84298829  0.15083570  0.48179505     0.29700
C2196       C  0.82562887  0.17766151  0.48617631    -0.21100
C2197       C  0.80374656  0.18768153  0.46407356    -0.09100
C2198       C  0.79722775  0.16837742  0.43912603     0.29700
F2199       F  0.77592055  0.17651250  0.41759913    -0.19700
H2200       H  0.81075118  0.13019182  0.41271104     0.18100
H2201       H  0.83068416  0.19161991  0.50639074     0.18100
F2202       F  0.86604896  0.14447360  0.50205083    -0.19700
C2203       C  0.99366279  0.85259253  0.35812521    -0.21100
C2204       C  0.96884031  0.84554263  0.37771425    -0.09100
C2205       C  0.94959100  0.82037762  0.36910338     0.29700
C2206       C  0.95427034  0.80426061  0.34175860    -0.21100
C2207       C  0.97717683  0.81307745  0.32106550    -0.09100
C2208       C  0.99792978  0.83655675  0.33017243     0.29700
F2209       F  0.02136113  0.84529654  0.31140175    -0.19700
H2210       H  0.00824268  0.87216059  0.36305356     0.18100
H2211       H  0.93806816  0.78630422  0.33567982     0.18100
F2212       F  0.92332037  0.81363481  0.38463965    -0.19700
C2213       C  0.68834861  0.64024557  0.47479805    -0.21100
C2214       C  0.65584382  0.64109373  0.47762137    -0.09100
C2215       C  0.64293101  0.66923466  0.48728381     0.29700
C2216       C  0.65980094  0.69646221  0.48408422    -0.21100
C2217       C  0.69049231  0.69599699  0.47335002    -0.09100
C2218       C  0.70532360  0.66741094  0.47121592     0.29700
F2219       F  0.73595387  0.66559108  0.46515166    -0.19700
H2220       H  0.70047978  0.61867556  0.47250647     0.18100
H2221       H  0.64819545  0.71803563  0.48857191     0.18100
F2222       F  0.61260705  0.67107026  0.49479298    -0.19700
C2223       C  0.84996742  0.65941844  0.50618268    -0.21100
C2224       C  0.85308918  0.65030373  0.53695474    -0.09100
C2225       C  0.83728818  0.66755070  0.56006444     0.29700
C2226       C  0.81927801  0.69296777  0.55253640    -0.21100
C2227       C  0.81633645  0.70233864  0.52190494    -0.09100
C2228       C  0.83188486  0.68511545  0.49861634     0.29700
F2229       F  0.82986421  0.69297663  0.46831337    -0.19700
H2230       H  0.86158596  0.64695077  0.48798351     0.18100
H2231       H  0.80774916  0.70541611  0.57085942     0.18100
F2232       F  0.83949636  0.65988228  0.59045239    -0.19700
C2233       C  0.67813030  0.86792056  0.56186136    -0.21100
C2234       C  0.67531400  0.83571225  0.56007501    -0.09100
C2235       C  0.64578579  0.82285171  0.56189237     0.29700
C2236       C  0.61997749  0.84141405  0.56595008    -0.21100
C2237       C  0.62254627  0.87351244  0.56979671    -0.09100
C2238       C  0.65201196  0.88674126  0.56645859     0.29700
F2239       F  0.65560114  0.91764329  0.56630886    -0.19700
H2240       H  0.70026257  0.87862048  0.55764254     0.18100
H2241       H  0.59764215  0.83033163  0.56642564     0.18100
F2242       F  0.64167840  0.79223281  0.55740477    -0.19700
C2243       C  0.83160656  0.85964093  0.43465988    -0.21100
C2244       C  0.83059338  0.82733580  0.43517521    -0.09100
C2245       C  0.85691488  0.81157984  0.44570047     0.29700
C2246       C  0.88413579  0.82762170  0.45246145    -0.21100
C2247       C  0.88654445  0.85971227  0.44762077    -0.09100
C2248       C  0.85882685  0.87566418  0.44139791     0.29700
F2249       F  0.85756243  0.90674082  0.44131444    -0.19700
H2250       H  0.81116531  0.87276601  0.42889231     0.18100
H2251       H  0.90379818  0.81435741  0.46011240     0.18100
F2252       F  0.85658560  0.78062032  0.44941596    -0.19700
C2253       C  0.84120474  0.89118406  0.51865116    -0.21100
C2254       C  0.83244015  0.86379407  0.53350143    -0.09100
C2255       C  0.84726470  0.85544669  0.56124775     0.29700
C2256       C  0.86816634  0.87546961  0.57501042    -0.21100
C2257       C  0.87573873  0.90341909  0.56093825    -0.09100
C2258       C  0.86272696  0.91084660  0.53221838     0.29700
F2259       F  0.86814026  0.93866884  0.51914010    -0.19700
H2260       H  0.83003187  0.89838814  0.49745977     0.18100
H2261       H  0.87577383  0.87051826  0.59827204     0.18100
F2262       F  0.83974962  0.82931420  0.57660170    -0.19700
C2263       C  0.63428280  0.90906748  0.44726955    -0.21100
C2264       C  0.63071372  0.91185950  0.41525234    -0.09100
C2265       C  0.64670925  0.89186897  0.39530196     0.29700
C2266       C  0.66668175  0.86993209  0.40729833    -0.21100
C2267       C  0.67163108  0.86833071  0.43913401    -0.09100
C2268       C  0.65504743  0.88755785  0.45924768     0.29700
F2269       F  0.65918026  0.88562276  0.49030116    -0.19700
H2270       H  0.62203391  0.92432086  0.46277102     0.18100
H2271       H  0.67929998  0.85508516  0.39168652     0.18100
F2272       F  0.64329775  0.89393233  0.36414690    -0.19700
C2273       C  0.67626894  0.01044242  0.33503715    -0.21100
C2274       C  0.67863489  0.99472526  0.30661956    -0.09100
C2275       C  0.65135333  0.98511502  0.29214410     0.29700
C2276       C  0.62337944  0.98650635  0.30808977    -0.21100
C2277       C  0.62259495  0.99496370  0.33971406    -0.09100
C2278       C  0.64830946  0.01124739  0.35118704     0.29700
F2279       F  0.64815387  0.02256080  0.38043552    -0.19700
H2280       H  0.69655483  0.02005799  0.34601816     0.18100
H2281       H  0.60326998  0.97836756  0.29591878     0.18100
F2282       F  0.65178167  0.97331585  0.26308798    -0.19700
C2283       C  0.67646738  0.01136703  0.16733339    -0.21100
C2284       C  0.69539576  0.03440280  0.18078407    -0.09100
C2285       C  0.68743152  0.06512640  0.17601088     0.29700
C2286       C  0.66162926  0.07244492  0.15810475    -0.21100
C2287       C  0.64293668  0.04956009  0.14390756    -0.09100
C2288       C  0.65058942  0.01871756  0.14920241     0.29700
F2289       F  0.63357175  0.99558751  0.13704562    -0.19700
H2290       H  0.68170561  0.98727348  0.17071966     0.18100
H2291       H  0.65643093  0.09656824  0.15469733     0.18100
F2292       F  0.70436773  0.08817170  0.18863598    -0.19700
C2293       C  0.83935716  0.09811001  0.32293013    -0.21100
C2294       C  0.84218911  0.06951552  0.30863896    -0.09100
C2295       C  0.86481829  0.04879030  0.31959895     0.29700
C2296       C  0.88023131  0.05425374  0.34756767    -0.21100
C2297       C  0.87379748  0.08080134  0.36441812    -0.09100
C2298       C  0.85570591  0.10411378  0.35024695     0.29700
F2299       F  0.85131194  0.13153763  0.36452120    -0.19700
H2300       H  0.82232990  0.11446600  0.31484836     0.18100
H2301       H  0.89479021  0.03652368  0.35739180     0.18100
F2302       F  0.86876845  0.02125014  0.30542853    -0.19700
C2303       C  0.84599724  0.93987183  0.17567750    -0.21100
C2304       C  0.81370991  0.94351549  0.17593254    -0.09100
C2305       C  0.79992170  0.95809772  0.15036670     0.29700
C2306       C  0.81758035  0.96602657  0.12442998    -0.21100
C2307       C  0.84934185  0.95866050  0.12247067    -0.09100
C2308       C  0.86367458  0.94816361  0.14981760     0.29700
F2309       F  0.89472149  0.94582713  0.15196728    -0.19700
H2310       H  0.85781121  0.93080180  0.19579238     0.18100
H2311       H  0.80581366  0.97664899  0.10510232     0.18100
F2312       F  0.76934228  0.96473141  0.15021730    -0.19700
C2313       C  0.87830447  0.95084942  0.38476977    -0.21100
C2314       C  0.88491790  0.91944438  0.38262649    -0.09100
C2315       C  0.86605603  0.90044939  0.36408956     0.29700
C2316       C  0.84407266  0.91341267  0.34459030    -0.21100
C2317       C  0.83982609  0.94517780  0.34427999    -0.09100
C2318       C  0.85554799  0.96368919  0.36575044     0.29700
F2319       F  0.85028633  0.99436339  0.36677778    -0.19700
H2320       H  0.89199695  0.96561443  0.39956554     0.18100
H2321       H  0.83160679  0.89887670  0.32851085     0.18100
F2322       F  0.87003121  0.86949076  0.36365423    -0.19700
C2323       C  0.91509420  0.03937687  0.15669336    -0.21100
C2324       C  0.90233329  0.05587528  0.13176790    -0.09100
C2325       C  0.87104901  0.05194020  0.12455660     0.29700
C2326       C  0.85211946  0.03563857  0.14468027    -0.21100
C2327       C  0.86410084  0.02287983  0.17206306    -0.09100
C2328       C  0.89614674  0.02291482  0.17680213     0.29700
F2329       F  0.90879876  0.01003762  0.20244993    -0.19700
H2330       H  0.93937784  0.04154388  0.16218634     0.18100
H2331       H  0.82757979  0.03503279  0.14000138     0.18100
F2332       F  0.85789712  0.06686343  0.10036560    -0.19700
C2333       C  0.02552561  0.35069269  0.18150387    -0.21100
C2334       C  0.03780531  0.32059941  0.18219566    -0.09100
C2335       C  0.04531613  0.30679665  0.15393808     0.29700
C2336       C  0.04440572  0.32407101  0.12654149    -0.21100
C2337       C  0.03806318  0.35608109  0.12698534    -0.09100
C2338       C  0.02482401  0.36789840  0.15419967     0.29700
F2339       F  0.01493626  0.39748777  0.15543665    -0.19700
H2340       H  0.01741499  0.36162290  0.20245978     0.18100
H2341       H  0.05017211  0.31229287  0.10537443     0.18100
F2342       F  0.05385964  0.27682565  0.15271380    -0.19700
C2343       C  0.94512937  0.18585219  0.19072035    -0.21100
C2344       C  0.97473503  0.19824926  0.19103275    -0.09100
C2345       C  0.99576325  0.18942082  0.16761947     0.29700
C2346       C  0.98749721  0.16753558  0.14526080    -0.21100
C2347       C  0.95812817  0.15417874  0.14573875    -0.09100
C2348       C  0.93687088  0.16416933  0.16857308     0.29700
F2349       F  0.90770757  0.15283686  0.16948399    -0.19700
H2350       H  0.92855001  0.19217677  0.20829462     0.18100
H2351       H  0.00404757  0.16134578  0.12769758     0.18100
F2352       F  0.02435665  0.20200606  0.16622010    -0.19700
C2353       C  0.04765535  0.13754889  0.34347794    -0.21100
C2354       C  0.07115557  0.13303522  0.36536285    -0.09100
C2355       C  0.09528906  0.15484501  0.36689457     0.29700
C2356       C  0.09537036  0.18059180  0.34751800    -0.21100
C2357       C  0.07273760  0.18408303  0.32467720    -0.09100
C2358       C  0.04853373  0.16259376  0.32313724     0.29700
F2359       F  0.02550337  0.16600590  0.30210985    -0.19700
H2360       H  0.02969829  0.12046716  0.34072967     0.18100
H2361       H  0.11389175  0.19717681  0.34944321     0.18100
F2362       F  0.12064185  0.14960014  0.38445633    -0.19700
C2363       C  0.94570227  0.34125390  0.34943637    -0.21100
C2364       C  0.94393586  0.34258960  0.31702925    -0.09100
C2365       C  0.94180444  0.37137051  0.30274609     0.29700
C2366       C  0.94014022  0.39799736  0.32046378    -0.21100
C2367       C  0.93948775  0.39678436  0.35306121    -0.09100
C2368       C  0.94434106  0.36810152  0.36732143     0.29700
F2369       F  0.94916499  0.36582341  0.39819393    -0.19700
H2370       H  0.95081820  0.31963011  0.36076933     0.18100
H2371       H  0.93891885  0.41978015  0.30844583     0.18100
F2372       F  0.94382940  0.37383802  0.27150785    -0.19700
C2373       C  0.95282203  0.16181904  0.34405009    -0.21100
C2374       C  0.96204470  0.18994284  0.35695458    -0.09100
C2375       C  0.95845385  0.19484248  0.38881740     0.29700
C2376       C  0.94415202  0.17262214  0.40704618    -0.21100
C2377       C  0.93363743  0.14497887  0.39396182    -0.09100
C2378       C  0.93916040  0.13924341  0.36245705     0.29700
F2379       F  0.92988237  0.11271747  0.34894990    -0.19700
H2380       H  0.95597901  0.15744930  0.31960190     0.18100
H2381       H  0.94021673  0.17747842  0.43128597     0.18100
F2382       F  0.96706072  0.22183545  0.40197879    -0.19700
C2383       C  0.09082511  0.35853450  0.34493796    -0.21100
C2384       C  0.06106005  0.34783322  0.35074118    -0.09100
C2385       C  0.04303496  0.36201020  0.37370983     0.29700
C2386       C  0.05538838  0.38591318  0.39148853    -0.21100
C2387       C  0.08594581  0.39513154  0.38693927    -0.09100
C2388       C  0.10347743  0.38143811  0.36328514     0.29700
F2389       F  0.13388077  0.38800714  0.35999305    -0.19700
H2390       H  0.10504627  0.34774682  0.32746133     0.18100
H2391       H  0.04202687  0.39549687  0.41029901     0.18100
F2392       F  0.01392475  0.35224920  0.37943921    -0.19700
C2393       C  0.82141866  0.52763215  0.15648853    -0.21100
C2394       C  0.82059122  0.53901343  0.18703813    -0.09100
C2395       C  0.84877620  0.54447185  0.20205239     0.29700
C2396       C  0.87646600  0.54274923  0.18556604    -0.21100
C2397       C  0.87646992  0.53805357  0.15316679    -0.09100
C2398       C  0.84911959  0.52641752  0.13993337     0.29700
F2399       F  0.84827883  0.51834376  0.10961230    -0.19700
H2400       H  0.80035877  0.52109015  0.14471462     0.18100
H2401       H  0.89741365  0.54694970  0.19834433     0.18100
F2402       F  0.84968743  0.55200727  0.23249321    -0.19700
C2403       C  0.83148113  0.50479472  0.32306717    -0.21100
C2404       C  0.80976894  0.48205349  0.31419574    -0.09100
C2405       C  0.81191144  0.45306635  0.32783652     0.29700
C2406       C  0.83504193  0.44714011  0.34960556    -0.21100
C2407       C  0.85651684  0.47000804  0.35917132    -0.09100
C2408       C  0.85460895  0.49890893  0.34501546     0.29700
F2409       F  0.87579934  0.52101971  0.35094454    -0.19700
H2410       H  0.83083271  0.52743013  0.31269349     0.18100
H2411       H  0.83678383  0.42387973  0.35829806     0.18100
F2412       F  0.79169144  0.43044820  0.32036751    -0.19700
C2413       C  0.65045024  0.47640202  0.15634971    -0.21100
C2414       C  0.66971630  0.45543151  0.17232845    -0.09100
C2415       C  0.66778923  0.42423837  0.16484641     0.29700
C2416       C  0.64938644  0.41502300  0.13973386    -0.21100
C2417       C  0.63261606  0.43673528  0.12183406    -0.09100
C2418       C  0.63213704  0.46727031  0.13142430     0.29700
F2419       F  0.61620049  0.48872552  0.11516222    -0.19700
H2420       H  0.65090988  0.50054888  0.16213048     0.18100
H2421       H  0.64937832  0.39097965  0.13325778     0.18100
F2422       F  0.68516870  0.40316086  0.18008475    -0.19700
C2423       C  0.67096167  0.55570842  0.37767199    -0.21100
C2424       C  0.65145459  0.58050142  0.38456171    -0.09100
C2425       C  0.65338101  0.60709668  0.36579267     0.29700
C2426       C  0.67172078  0.60748312  0.33928576    -0.21100
C2427       C  0.69086185  0.58264871  0.33234075    -0.09100
C2428       C  0.69078662  0.55686810  0.35207561     0.29700
F2429       F  0.70923349  0.53239418  0.34606122    -0.19700
H2430       H  0.67159505  0.53586372  0.39276700     0.18100
H2431       H  0.67157955  0.62758202  0.32451996     0.18100
F2432       F  0.63967227  0.63373821  0.37423075    -0.19700
C2433       C  0.63759208  0.61472488  0.12901832    -0.21100
C2434       C  0.61073594  0.59910909  0.11995453    -0.09100
C2435       C  0.60261972  0.57186223  0.13510052     0.29700
C2436       C  0.62133042  0.56041144  0.15884104    -0.21100
C2437       C  0.64877479  0.57558168  0.16710850    -0.09100
C2438       C  0.65701920  0.60263229  0.15162033     0.29700
F2439       F  0.68271423  0.61849848  0.15981150    -0.19700
H2440       H  0.64263917  0.63727752  0.11991405     0.18100
H2441       H  0.61421391  0.53985044  0.17093983     0.18100
F2442       F  0.57551875  0.55769538  0.12849247    -0.19700
C2443       C  0.60662301  0.47677915  0.36259585    -0.21100
C2444       C  0.61315163  0.44643220  0.37116427    -0.09100
C2445       C  0.63889804  0.43149711  0.35860179     0.29700
C2446       C  0.65725154  0.44629576  0.33706727    -0.21100
C2447       C  0.64973474  0.47591488  0.32665098    -0.09100
C2448       C  0.62474219  0.49154815  0.34034766     0.29700
F2449       F  0.61688123  0.52036005  0.33128049    -0.19700
H2450       H  0.58617144  0.48811030  0.37131948     0.18100
H2451       H  0.67622899  0.43357821  0.32704870     0.18100
F2452       F  0.64431413  0.40134610  0.36455836    -0.19700
C2453       C  0.34057867  0.35379790  0.56224972    -0.21100
C2454       C  0.35514448  0.37016889  0.53792370    -0.09100
C2455       C  0.34922201  0.36094487  0.50744678     0.29700
C2456       C  0.32956783  0.33602357  0.50185240    -0.21100
C2457       C  0.31540938  0.31967390  0.52635952    -0.09100
C2458       C  0.32122944  0.32892285  0.55668065     0.29700
F2459       F  0.30865339  0.31381911  0.58102010    -0.19700
H2460       H  0.34430150  0.36049123  0.58610775     0.18100
H2461       H  0.32538314  0.32961012  0.47801406     0.18100
F2462       F  0.36157100  0.37595456  0.48302064    -0.19700
C2463       C  0.16298470  0.37211436  0.48537567    -0.21100
C2464       C  0.16878948  0.39228589  0.46077985    -0.09100
C2465       C  0.19165049  0.38312748  0.43877234     0.29700
C2466       C  0.20635059  0.35463220  0.44065950    -0.21100
C2467       C  0.19824764  0.33366062  0.46349219    -0.09100
C2468       C  0.17741203  0.34324318  0.48678916     0.29700
F2469       F  0.17006897  0.32429234  0.51056990    -0.19700
H2470       H  0.14519163  0.37742719  0.50203522     0.18100
H2471       H  0.22244087  0.34808213  0.42271084     0.18100
F2472       F  0.19690339  0.39940888  0.41257056    -0.19700
C2473       C  0.38100738  0.18249227  0.45326936    -0.21100
C2474       C  0.38215867  0.15149728  0.44391318    -0.09100
C2475       C  0.35400682  0.13668272  0.43746801     0.29700
C2476       C  0.32672808  0.15393656  0.43458303    -0.21100
C2477       C  0.32681092  0.18603324  0.43903409    -0.09100
C2478       C  0.35400234  0.19972601  0.45028520     0.29700
F2479       F  0.35478050  0.22989232  0.45821020    -0.19700
H2480       H  0.40188838  0.19420842  0.46036861     0.18100
H2481       H  0.30563999  0.14221293  0.42819957     0.18100
F2482       F  0.35287877  0.10602584  0.43209937    -0.19700
C2483       C  0.14380176  0.14986342  0.57403776    -0.21100
C2484       C  0.11816319  0.15408542  0.55429198    -0.09100
C2485       C  0.11920504  0.17837263  0.53303050     0.29700
C2486       C  0.14385207  0.19896019  0.53303522    -0.21100
C2487       C  0.16947330  0.19509970  0.55282592    -0.09100
C2488       C  0.16970481  0.16943480  0.57258245     0.29700
F2489       F  0.19389490  0.16439513  0.59186875    -0.19700
H2490       H  0.14283845  0.13327192  0.59244488     0.18100
H2491       H  0.14263531  0.21823795  0.51728623     0.18100
F2492       F  0.09458061  0.18414652  0.51444612    -0.19700
C2493       C  0.36584437  0.15347686  0.58690475    -0.21100
C2494       C  0.37860079  0.12826241  0.57130489    -0.09100
C2495       C  0.36984551  0.12248298  0.54062346     0.29700
C2496       C  0.34700808  0.14060896  0.52660406    -0.21100
C2497       C  0.33298192  0.16481853  0.54300252    -0.09100
C2498       C  0.34377592  0.17194588  0.57287221     0.29700
F2499       F  0.33116646  0.19503429  0.58977189    -0.19700
H2500       H  0.37113228  0.15740359  0.61107275     0.18100
H2501       H  0.33929748  0.13483038  0.50351046     0.18100
F2502       F  0.38112036  0.09765500  0.52539691    -0.19700
C2503       C  0.16749228  0.12215927  0.47544093    -0.21100
C2504       C  0.16210656  0.15357449  0.47040031    -0.09100
C2505       C  0.13328295  0.16298671  0.45863560     0.29700
C2506       C  0.11231197  0.14111842  0.44806301    -0.21100
C2507       C  0.12087496  0.11017141  0.44724663    -0.09100
C2508       C  0.14689350  0.10047090  0.46403779     0.29700
F2509       F  0.15428786  0.07020193  0.46595347    -0.19700
H2510       H  0.18871614  0.11423213  0.48601860     0.18100
H2511       H  0.09158561  0.14884616  0.43641436     0.18100
F2512       F  0.12633576  0.19315327  0.45480769    -0.19700
C2513       C  0.46164918  0.21330317  0.34467716    -0.21100
C2514       C  0.46544304  0.19894721  0.31588256    -0.09100
C2515       C  0.47757494  0.16875230  0.31562306     0.29700
C2516       C  0.48071593  0.15212307  0.34316861    -0.21100
C2517       C  0.47000505  0.16437370  0.37129224    -0.09100
C2518       C  0.46526874  0.19659100  0.37218783     0.29700
F2519       F  0.46386291  0.21202920  0.39940713    -0.19700
H2520       H  0.45582435  0.23746905  0.34595838     0.18100
H2521       H  0.48700065  0.12806557  0.34174990     0.18100
F2522       F  0.48475712  0.15440632  0.28871311    -0.19700
C2523       C  0.55556563  0.32675288  0.31408602    -0.21100
C2524       C  0.52443179  0.32242126  0.30727575    -0.09100
C2525       C  0.50214737  0.33684370  0.32664892     0.29700
C2526       C  0.51100691  0.35616392  0.35092944    -0.21100
C2527       C  0.54212980  0.36146627  0.35696945    -0.09100
C2528       C  0.56438404  0.34570286  0.33866771     0.29700
F2529       F  0.59503660  0.34942057  0.34400278    -0.19700
H2530       H  0.57315549  0.31581607  0.30017037     0.18100
H2531       H  0.49333644  0.36722680  0.36453487     0.18100
F2532       F  0.47142548  0.33296980  0.32201150    -0.19700
C2533       C  0.55649548  0.18391249  0.14265174    -0.21100
C2534       C  0.54921747  0.18160470  0.17424724    -0.09100
C2535       C  0.54732160  0.15215848  0.18746420     0.29700
C2536       C  0.55347625  0.12595509  0.17004995    -0.21100
C2537       C  0.56233165  0.12794023  0.13886646    -0.09100
C2538       C  0.56275598  0.15733891  0.12497467     0.29700
F2539       F  0.56928189  0.16061245  0.09452404    -0.19700
H2540       H  0.55589741  0.20610146  0.13133855     0.18100
H2541       H  0.55173597  0.10380705  0.18131703     0.18100
F2542       F  0.53808177  0.14865146  0.21724026    -0.19700
C2543       C  0.45048538  0.36361935  0.19784223    -0.21100
C2544       C  0.42705735  0.34268477  0.18979410    -0.09100
C2545       C  0.41185235  0.34660373  0.16144315     0.29700
C2546       C  0.41831781  0.37188548  0.14279609    -0.21100
C2547       C  0.44140521  0.39325434  0.15038810    -0.09100
C2548       C  0.45787196  0.38838781  0.17824883     0.29700
F2549       F  0.47935283  0.40905787  0.18767585    -0.19700
H2550       H  0.46331527  0.36064812  0.21917216     0.18100
H2551       H  0.40265928  0.37602810  0.12399502     0.18100
F2552       F  0.38939129  0.32678980  0.15244767    -0.19700
C2553       C  0.52456357  0.37012988  0.09405039    -0.21100
C2554       C  0.54976440  0.38688777  0.10539044    -0.09100
C2555       C  0.55690050  0.38562622  0.13700284     0.29700
C2556       C  0.54157053  0.36489152  0.15612153    -0.21100
C2557       C  0.51862091  0.34551847  0.14407076    -0.09100
C2558       C  0.50872894  0.34981134  0.11330636     0.29700
F2559       F  0.48590581  0.33234262  0.10093680    -0.19700
H2560       H  0.51887552  0.37084586  0.06965328     0.18100
H2561       H  0.54893276  0.36272340  0.17997124     0.18100
F2562       F  0.58095417  0.40173897  0.14871497    -0.19700
C2563       C  0.41720276  0.13358240  0.12587254    -0.21100
C2564       C  0.41722292  0.14122128  0.09444310    -0.09100
C2565       C  0.42855219  0.16995439  0.08515117     0.29700
C2566       C  0.43619088  0.19188832  0.10719234    -0.21100
C2567       C  0.43312351  0.18538899  0.13885775    -0.09100
C2568       C  0.42478409  0.15552663  0.14806815     0.29700
F2569       F  0.42313587  0.14764166  0.17837659    -0.19700
H2570       H  0.40960504  0.11130644  0.13349288     0.18100
H2571       H  0.44383040  0.21423621  0.09932979     0.18100
F2572       F  0.43083775  0.17727586  0.05471710    -0.19700
C2573       C  0.31411323  0.58016922  0.32050657    -0.21100
C2574       C  0.31020060  0.55035015  0.30953081    -0.09100
C2575       C  0.33079749  0.52705991  0.31988819     0.29700
C2576       C  0.35450917  0.53373459  0.34090118    -0.21100
C2577       C  0.35796827  0.56352286  0.35238851    -0.09100
C2578       C  0.33728285  0.58669701  0.34181770     0.29700
F2579       F  0.33925318  0.61599435  0.35251238    -0.19700
H2580       H  0.29855848  0.59834978  0.31343219     0.18100
H2581       H  0.36967863  0.51547134  0.34839053     0.18100
F2582       F  0.32790294  0.49754508  0.31014168    -0.19700
C2583       C  0.32362951  0.49781185  0.15972516    -0.21100
C2584       C  0.31886189  0.48438430  0.18898817    -0.09100
C2585       C  0.34465721  0.47356864  0.20529882     0.29700
C2586       C  0.37361531  0.47291783  0.19120378    -0.21100
C2587       C  0.37737383  0.48157508  0.15985173    -0.09100
C2588       C  0.35256638  0.49703857  0.14557714     0.29700
F2589       F  0.35508826  0.50736367  0.11607355    -0.19700
H2590       H  0.30464368  0.50805527  0.14709322     0.18100
H2591       H  0.39217593  0.46390885  0.20500827     0.18100
F2592       F  0.34201024  0.46316473  0.23476159    -0.19700
C2593       C  0.15398157  0.59905946  0.17428139    -0.21100
C2594       C  0.17934892  0.57923173  0.17131091    -0.09100
C2595       C  0.18141519  0.56109795  0.14422129     0.29700
C2596       C  0.15840644  0.56202839  0.12161425    -0.21100
C2597       C  0.13404147  0.58301031  0.12355271    -0.09100
C2598       C  0.13235140  0.60196163  0.15008335     0.29700
F2599       F  0.11223588  0.62576881  0.15101949    -0.19700
H2600       H  0.15201786  0.61376303  0.19438381     0.18100
H2601       H  0.16158200  0.54875704  0.10064999     0.18100
F2602       F  0.20639061  0.54316871  0.13861579    -0.19700
C2603       C  0.19333084  0.47404118  0.35117488    -0.21100
C2604       C  0.18002588  0.45928127  0.32546582    -0.09100
C2605       C  0.14875775  0.45070503  0.32732201     0.29700
C2606       C  0.13244028  0.45403324  0.35515667    -0.21100
C2607       C  0.14700218  0.46525866  0.38196832    -0.09100
C2608       C  0.17690934  0.47767063  0.37876296     0.29700
F2609       F  0.19082761  0.49223560  0.40279801    -0.19700
H2610       H  0.21653875  0.48311016  0.34991958     0.18100
H2611       H  0.10892395  0.44597418  0.35604127     0.18100
F2612       F  0.13413292  0.43816627  0.30258500    -0.19700
C2613       C  0.14542704  0.58356801  0.37691860    -0.21100
C2614       C  0.11716406  0.56941719  0.38314532    -0.09100
C2615       C  0.10930420  0.54231311  0.36746662     0.29700
C2616       C  0.12734114  0.53242755  0.34273627    -0.21100
C2617       C  0.15392501  0.54885359  0.33428343    -0.09100
C2618       C  0.16411217  0.57304489  0.35322091     0.29700
F2619       F  0.19011458  0.58909331  0.34667788    -0.19700
H2620       H  0.15085805  0.60571297  0.38656505     0.18100
H2621       H  0.11929021  0.51329206  0.32892571     0.18100
F2622       F  0.08181758  0.52841372  0.37281457    -0.19700
C2623       C  0.14980087  0.47927020  0.12914773    -0.21100
C2624       C  0.13988940  0.48535242  0.15946067    -0.09100
C2625       C  0.10915566  0.47890729  0.16740764     0.29700
C2626       C  0.09083280  0.46193457  0.14738118    -0.21100
C2627       C  0.10283008  0.45071811  0.11942028    -0.09100
C2628       C  0.13112867  0.46250063  0.10888125     0.29700
F2629       F  0.14234438  0.45537766  0.08054277    -0.19700
H2630       H  0.17280763  0.48552632  0.12181227     0.18100
H2631       H  0.06794849  0.45550041  0.15496056     0.18100
F2632       F  0.09747002  0.48653952  0.19547867    -0.19700
C2633       C  0.82934474  0.84143922  0.01570988    -0.21100
C2634       C  0.80530523  0.83434609  0.03651436    -0.09100
C2635       C  0.79419399  0.85764793  0.05565144     0.29700
C2636       C  0.80889048  0.88610602  0.05633608    -0.21100
C2637       C  0.83516270  0.89263276  0.03778484    -0.09100
C2638       C  0.84410162  0.87007318  0.01628585     0.29700
F2639       F  0.86925598  0.87424013  0.99821831    -0.19700
H2640       H  0.83782852  0.82426394  0.99972941     0.18100
H2641       H  0.80142261  0.90139509  0.07447293     0.18100
F2642       F  0.77064827  0.85236944  0.07556205    -0.19700
C2643       C  0.67423960  0.82085572  0.94437063    -0.21100
C2644       C  0.68610465  0.81916026  0.97425029    -0.09100
C2645       C  0.67615921  0.84123413  0.99637103     0.29700
C2646       C  0.65449773  0.86406971  0.98852754    -0.21100
C2647       C  0.64230183  0.86543066  0.95857114    -0.09100
C2648       C  0.65272245  0.84334809  0.93658835     0.29700
F2649       F  0.64221312  0.84368017  0.90696900    -0.19700
H2650       H  0.68108561  0.80426332  0.92702007     0.18100
H2651       H  0.64764568  0.88071532  0.00576563     0.18100
F2652       F  0.68751805  0.84100111  0.02565215    -0.19700
C2653       C  0.65202089  0.70513885  0.04467739    -0.21100
C2654       C  0.67631181  0.69044549  0.06030807    -0.09100
C2655       C  0.67393832  0.65856287  0.06553379     0.29700
C2656       C  0.64628074  0.64299728  0.05911709    -0.21100
C2657       C  0.62032837  0.65890385  0.04798081    -0.09100
C2658       C  0.62480583  0.68939245  0.03761737     0.29700
F2659       F  0.60223646  0.70462602  0.02212012    -0.19700
H2660       H  0.65403894  0.72898383  0.03782093     0.18100
H2661       H  0.64462934  0.61897644  0.06519133     0.18100
F2662       F  0.69771471  0.64263885  0.07821847    -0.19700
C2663       C  0.87939559  0.66927355  0.97113954    -0.21100
C2664       C  0.87687711  0.64263160  0.95309388    -0.09100
C2665       C  0.84765867  0.63527723  0.94082174     0.29700
C2666       C  0.82338998  0.65694469  0.94178881    -0.21100
C2667       C  0.82796839  0.68607274  0.95528990    -0.09100
C2668       C  0.85601096  0.69118042  0.97130419     0.29700
F2669       F  0.86174846  0.71794854  0.98636203    -0.19700
H2670       H  0.90132767  0.67516240  0.98164857     0.18100
H2671       H  0.80152746  0.65137504  0.93104199     0.18100
F2672       F  0.84306184  0.60796881  0.92653535    -0.19700
C2673       C  0.63218047  0.64878936  0.93000890    -0.21100
C2674       C  0.62619419  0.62008004  0.94317354    -0.09100
C2675       C  0.64128112  0.61174076  0.97067717     0.29700
C2676       C  0.66376845  0.63100202  0.98335535    -0.21100
C2677       C  0.67108517  0.65905290  0.96905527    -0.09100
C2678       C  0.65385557  0.66846292  0.94305588     0.29700
F2679       F  0.65989556  0.69529698  0.92827190    -0.19700
H2680       H  0.62288851  0.65460268  0.90757994     0.18100
H2681       H  0.67657597  0.62317670  0.00337676     0.18100
F2682       F  0.63669191  0.58354772  0.98324875    -0.19700
C2683       C  0.85258804  0.63494906  0.03235388    -0.21100
C2684       C  0.84192309  0.66025424  0.04933757    -0.09100
C2685       C  0.85324222  0.66568325  0.07914813     0.29700
C2686       C  0.87373071  0.64497182  0.09243278    -0.21100
C2687       C  0.88475197  0.61977741  0.07548879    -0.09100
C2688       C  0.87465846  0.61521328  0.04503578     0.29700
F2689       F  0.88417007  0.59035396  0.02867569    -0.19700
H2690       H  0.84324192  0.63011427  0.00964665     0.18100
H2691       H  0.87943315  0.64750941  0.11667186     0.18100
F2692       F  0.84222028  0.68930612  0.09641178    -0.19700
C2693       C  0.33252020  0.83420650  0.49924766    -0.21100
C2694       C  0.31669245  0.81817433  0.47539775    -0.09100
C2695       C  0.32162365  0.82717818  0.44484604     0.29700
C2696       C  0.34175183  0.85132292  0.43847825    -0.21100
C2697       C  0.35771652  0.86752159  0.46219244    -0.09100
C2698       C  0.35274516  0.85852504  0.49285015     0.29700
F2699       F  0.36745706  0.87251908  0.51664751    -0.19700
H2700       H  0.32951086  0.82779052  0.52323185     0.18100
H2701       H  0.34518209  0.85740911  0.41443702     0.18100
F2702       F  0.30717903  0.81275636  0.42105246    -0.19700
C2703       C  0.18637440  0.84142310  0.57621625    -0.21100
C2704       C  0.19562515  0.83475468  0.54623278    -0.09100
C2705       C  0.18373902  0.85252265  0.52148683     0.29700
C2706       C  0.16184210  0.87577289  0.52683841    -0.21100
C2707       C  0.15082375  0.88095624  0.55682649    -0.09100
C2708       C  0.16386220  0.86355280  0.58149989     0.29700
F2709       F  0.15368900  0.86692447  0.61099087    -0.19700
H2710       H  0.19459278  0.82763926  0.59540694     0.18100
H2711       H  0.15266030  0.88853556  0.50744372     0.18100
F2712       F  0.19237862  0.84646535  0.49195977    -0.19700
C2713       C  0.13978463  0.70216839  0.45329195    -0.21100
C2714       C  0.17019430  0.69201345  0.44797708    -0.09100
C2715       C  0.17465856  0.66043402  0.44195852     0.29700
C2716       C  0.14910697  0.64048321  0.43907522    -0.21100
C2717       C  0.11874696  0.65180236  0.44077230    -0.09100
C2718       C  0.11460381  0.68245585  0.45006269     0.29700
F2719       F  0.08579928  0.69376637  0.45468987    -0.19700
H2720       H  0.13521379  0.72576311  0.45976870     0.18100
H2721       H  0.15310642  0.61637407  0.43492270     0.18100
F2722       F  0.20352147  0.64874190  0.43919002    -0.19700
C2723       C  0.33091521  0.65830869  0.56285072    -0.21100
C2724       C  0.32966132  0.69053652  0.56025259    -0.09100
C2725       C  0.35557956  0.70554388  0.54779790     0.29700
C2726       C  0.38260796  0.68923422  0.54128682    -0.21100
C2727       C  0.38559847  0.65771046  0.54848791    -0.09100
C2728       C  0.35822868  0.64198864  0.55655642     0.29700
F2729       F  0.35756722  0.61100019  0.55925086    -0.19700
H2730       H  0.31070777  0.64558732  0.56998604     0.18100
H2731       H  0.40177705  0.70198771  0.53185178     0.18100
F2732       F  0.35501971  0.73611242  0.54162178    -0.19700
C2733       C  0.13969451  0.68085844  0.58020171    -0.21100
C2734       C  0.15231195  0.67238062  0.55178775    -0.09100
C2735       C  0.14055343  0.64679113  0.53591076     0.29700
C2736       C  0.11736698  0.62887629  0.54923117    -0.21100
C2737       C  0.10670591  0.63571210  0.57898746    -0.09100
C2738       C  0.11779165  0.66216102  0.59422539     0.29700
F2739       F  0.11059534  0.66769105  0.62421260    -0.19700
H2740       H  0.14891494  0.70031773  0.59283240     0.18100
H2741       H  0.11007515  0.60796928  0.53774648     0.18100
F2742       F  0.15278383  0.63816839  0.50844886    -0.19700
C2743       C  0.35288697  0.66658320  0.46533310    -0.21100
C2744       C  0.32559299  0.65342841  0.47688643    -0.09100
C2745       C  0.32387275  0.62130208  0.47973757     0.29700
C2746       C  0.34702837  0.60292235  0.46710327    -0.21100
C2747       C  0.37197393  0.61623269  0.45126676    -0.09100
C2748       C  0.37614174  0.64810507  0.45293137     0.29700
F2749       F  0.40083774  0.66164149  0.43948145    -0.19700
H2750       H  0.35551854  0.69130410  0.46428731     0.18100
H2751       H  0.34372009  0.57825389  0.46657504     0.18100
F2752       F  0.29862647  0.60751792  0.49195267    -0.19700
loop_ 
_geom_bond_atom_site_label_1 
_geom_bond_atom_site_label_2 
_geom_bond_distance 
_geom_bond_site_symmetry_2 
_ccdc_geom_bond_type 
O1           C17   1.275       .  A
O1           Zn7   2.000       .  S
C2           O18   1.267       .  A
C2           O15   1.287       .  A
C2         C2704   1.475       .  S
O3           C16   1.282       .  A
O3          Cd10   2.147       .  S
O4           C22   1.268       .  A
O4          Cd13   2.006       .  S
O5           C19   1.274       .  A
O5           Cd9   2.043       .  S
O6           C17   1.279       .  A
O6           Cd9   2.077       .  S
Zn7          O18   1.961       .  S
Zn7          O20   1.957       .  S
Zn7          O12   1.876       .  S
O8           C19   1.279       .  A
O8          Cd13   2.090       .  S
Cd9          O11   2.073       .  S
Cd9          O12   1.969       .  S
Cd10         O14   2.057       .  S
Cd10         O23   2.145       .  S
Cd10         O12   1.947       .  S
O11          C21   1.276       .  A
O12         Cd13   1.954       .  S
Cd13         O15   2.124       .  S
O14          C21   1.274       .  A
C16          O20   1.265       .  A
C16        C2714   1.501       .  S
C17        C2734   1.462       .  S
C19        C2724   1.499       .  S
C21        C2744   1.481       .  S
C22          O23   1.292       .  A
C22        C2694   1.491       .  S
O24          C40   1.267       .  A
O24         Zn30   1.955       .  S
C25          O41   1.276       .  A
C25          O38   1.275       .  A
C25        C2684   1.457       .  S
O26          C39   1.278       .  A
O26         Cd33   2.144       .  S
O27          C45   1.276       .  A
O27         Cd36   2.072   1_556  S
O28          C42   1.279       .  A
O28         Cd32   2.094       .  S
O29          C40   1.284       .  A
O29         Cd32   2.109       .  S
Zn30         O41   2.006       .  S
Zn30         O43   1.952   1_554  S
Zn30         O35   1.880       .  S
O31          C42   1.269       .  A
O31         Cd36   2.024       .  S
Cd32         O34   2.019       .  S
Cd32         O35   1.966       .  S
Cd33         O37   2.142       .  S
Cd33         O46   2.040       .  S
Cd33         O35   1.955   1_556  S
O34          C44   1.269   1_554  A
O35         Cd36   1.969       .  S
Cd36         O38   2.059       .  S
O37          C44   1.293       .  A
C39          O43   1.261       .  A
C39        C2667   1.500       .  S
C40        C2634   1.486       .  S
C42        C2654   1.490       .  S
C44        C2644   1.490       .  S
C45          O46   1.272       .  A
C45        C2677   1.478       .  S
O47          C63   1.270       .  A
O47         Zn53   1.969       .  S
C48          O64   1.277       .  A
C48          O61   1.274       .  A
C48        C2624   1.474       .  S
O49          C62   1.278       .  A
O49         Cd56   2.135       .  S
O50          C68   1.271       .  A
O50         Cd59   2.040       .  S
O51          C65   1.277       .  A
O51         Cd55   2.090       .  S
O52          C63   1.283       .  A
O52         Cd55   2.097       .  S
Zn53         O64   2.019       .  S
Zn53         O66   1.965       .  S
Zn53         O58   1.882       .  S
O54          C65   1.270       .  A
O54         Cd59   2.029       .  S
Cd55         O57   2.003       .  S
Cd55         O58   1.956       .  S
Cd56         O60   2.122       .  S
Cd56         O69   2.046       .  S
Cd56         O58   1.971       .  S
O57          C67   1.266       .  A
O58         Cd59   1.960       .  S
Cd59         O61   2.037       .  S
O60          C67   1.289       .  A
C62          O66   1.262       .  A
C62        C2594   1.496       .  S
C63        C2584   1.486       .  S
C65        C2604   1.492       .  S
C67        C2574   1.483       .  S
C68          O69   1.272       .  A
C68        C2617   1.471       .  S
O70          C86   1.270       .  A
O70         Zn76   1.976       .  S
C71          O87   1.275       .  A
C71          O84   1.273       .  A
C71        C2567   1.471       .  S
O72          C85   1.288       .  A
O72         Cd79   2.164       .  S
O73          C91   1.274       .  A
O73         Cd82   2.055       .  S
O74          C88   1.274       .  A
O74         Cd78   2.099       .  S
O75          C86   1.285       .  A
O75         Cd78   2.116       .  S
Zn76         O87   1.995       .  S
Zn76         O89   1.915       .  S
Zn76         O81   1.864       .  S
O77          C88   1.265       .  A
O77         Cd82   2.014       .  S
Cd78         O80   1.979       .  S
Cd78         O81   1.978       .  S
Cd79         O83   2.160       .  S
Cd79         O92   2.086       .  S
Cd79         O81   1.981       .  S
O80          C90   1.261       .  A
O81         Cd82   1.958       .  S
Cd82         O84   2.034       .  S
O83          C90   1.291       .  A
C85          O89   1.262       .  A
C85        C2534   1.480       .  S
C86        C2514   1.493       .  S
C88        C2544   1.486       .  S
C90        C2524   1.492       .  S
C91          O92   1.280       .  A
C91        C2557   1.478       .  S
O93         C109   1.268       .  A
O93         Zn99   1.966       .  S
C94         O110   1.277       .  A
C94         O107   1.277       .  A
C94        C2504   1.471       .  S
O95         C108   1.277       .  A
O95        Cd102   2.147       .  S
O96         C114   1.275       .  A
O96        Cd105   2.077       .  S
O97         C111   1.280       .  A
O97        Cd101   2.099       .  S
O98         C109   1.285       .  A
O98        Cd101   2.122       .  S
Zn99        O110   2.000       .  S
Zn99        O112   1.953       .  S
Zn99        O104   1.886       .  S
O100        C111   1.268       .  A
O100       Cd105   2.021       .  S
Cd101       O103   2.005       .  S
Cd101       O104   1.958       .  S
Cd102       O106   2.125       .  S
Cd102       O115   2.046       .  S
Cd102       O104   1.961       .  S
O103        C113   1.269       .  A
O104       Cd105   1.958       .  S
Cd105       O107   2.047       .  S
O106        C113   1.291       .  A
C108        O112   1.260       .  A
C108       C2487   1.499       .  S
C109       C2467   1.490       .  S
C111       C2477   1.491       .  S
C113       C2457   1.482       .  S
C114        O115   1.272       .  A
C114       C2497   1.479       .  S
O116        C132   1.276       .  A
O116       Zn122   2.003       .  S
C117        O133   1.271       .  A
C117        O130   1.288       .  A
C117       C2394   1.491       .  S
O118        C131   1.287       .  A
O118       Cd125   2.154       .  S
O119        C137   1.265       .  A
O119       Cd128   1.998       .  S
O120        C134   1.269       .  A
O120       Cd124   2.037       .  S
O121        C132   1.276       .  A
O121       Cd124   2.073       .  S
Zn122       O133   1.968       .  S
Zn122       O135   1.917       .  S
Zn122       O127   1.848       .  S
O123        C134   1.279       .  A
O123       Cd128   2.100       .  S
Cd124       O126   2.067       .  S
Cd124       O127   1.964       .  S
Cd125       O129   2.049       .  S
Cd125       O138   2.155       .  S
Cd125       O127   1.975       .  S
O126        C136   1.276       .  A
O127       Cd128   1.945       .  S
Cd128       O130   2.125       .  S
O129        C136   1.275       .  A
C131        O135   1.264       .  A
C131       C2414   1.486       .  S
C132       C2437   1.471       .  S
C134       C2427   1.475       .  S
C136       C2447   1.477       .  S
C137        O138   1.291       .  A
C137       C2404   1.491       .  S
O139        C155   1.272       .  A
O139       Zn145   1.979       .  S
C140        O156   1.264       .  A
C140        O153   1.289       .  A
C140       C2334   1.492       .  S
O141        C154   1.283       .  A
O141       Cd148   2.124       .  S
O142        C160   1.270   1_455  A
O142       Cd151   2.025       .  S
O143        C157   1.269       .  A
O143       Cd147   2.033       .  S
O144        C155   1.274       .  A
O144       Cd147   2.071       .  S
Zn145       O156   1.922       .  S
Zn145       O158   1.891   1_455  S
Zn145       O150   1.832       .  S
O146        C157   1.284       .  A
O146       Cd151   2.115       .  S
Cd147       O149   2.062   1_455  S
Cd147       O150   1.955       .  S
Cd148       O152   2.075       .  S
Cd148       O161   2.120       .  S
Cd148       O150   1.956   1_655  S
O149        C159   1.275       .  A
O150       Cd151   1.950       .  S
Cd151       O153   2.150       .  S
O152        C159   1.277       .  A
C154        O158   1.260       .  A
C154       C2364   1.456       .  S
C155       C2384   1.463       .  S
C157       C2357   1.475       .  S
C159       C2374   1.471       .  S
C160        O161   1.288       .  A
C160       C2344   1.481       .  S
O162        C178   1.274   1_545  A
O162       Zn168   1.975       .  S
C163        O179   1.274       .  A
C163        O176   1.278       .  A
C163       C2317   1.459       .  S
O164        C177   1.282       .  A
O164       Cd171   2.125       .  S
O165        C183   1.280   1_565  A
O165       Cd174   2.085       .  S
O166        C180   1.278       .  A
O166       Cd170   2.108       .  S
O167        C178   1.290       .  A
O167       Cd170   2.120       .  S
Zn168       O179   2.002   1_545  S
Zn168       O181   1.947       .  S
Zn168       O173   1.859   1_545  S
O169        C180   1.266       .  A
O169       Cd174   2.022       .  S
Cd170       O172   2.008       .  S
Cd170       O173   1.964       .  S
Cd171       O175   2.142       .  S
Cd171       O184   2.045       .  S
Cd171       O173   1.955   1_545  S
O172        C182   1.266   1_565  A
O173       Cd174   1.968       .  S
Cd174       O176   2.067       .  S
O175        C182   1.289       .  A
C177        O181   1.268       .  A
C177       C2294   1.473       .  S
C178       C2274   1.487       .  S
C180       C2304   1.498       .  S
C182       C2284   1.492       .  S
C183        O184   1.275       .  A
C183       C2327   1.475       .  S
O185        C201   1.274       .  A
O185       Zn191   1.991       .  S
C186        O202   1.268       .  A
C186        O199   1.287       .  A
C186       C2217   1.489       .  S
O187        C200   1.287       .  A
O187       Cd194   2.152       .  S
O188        C206   1.265       .  A
O188       Cd197   2.000       .  S
O189        C203   1.267       .  A
O189       Cd193   2.020       .  S
O190        C201   1.274       .  A
O190       Cd193   2.058       .  S
Zn191       O202   1.954       .  S
Zn191       O204   1.914       .  S
Zn191       O196   1.846       .  S
O192        C203   1.278       .  A
O192       Cd197   2.105       .  S
Cd193       O195   2.049       .  S
Cd193       O196   1.947       .  S
Cd194       O198   2.064       .  S
Cd194       O207   2.150       .  S
Cd194       O196   1.960       .  S
O195        C205   1.275       .  A
O196       Cd197   1.965       .  S
Cd197       O199   2.126       .  S
O198        C205   1.277       .  A
C200        O204   1.262       .  A
C200       C2234   1.472       .  S
C201       C2267   1.455       .  S
C203       C2244   1.494       .  S
C205       C2254   1.477       .  S
C206        O207   1.292       .  A
C206       C2227   1.491       .  S
C208        C209   1.541       .  S
C208        C214   1.529       .  S
C208        C212   1.535       .  S
C208       C2204   1.534       .  S
C209        H216   1.085       .  S
C209        C210   1.380       .  D
C210        C211   1.568       .  S
C210        C281   1.500       .  S
C211        C215   1.531       .  S
C211        C213   1.560       .  S
C211        H217   1.109       .  S
C212        H218   1.081       .  S
C212        C213   1.370       .  D
C213       C2247   1.522       .  S
C214        H219   1.088       .  S
C214        C215   1.352       .  D
C215       C2314   1.476       .  S
C220        C221   1.532       .  S
C220        C226   1.536       .  S
C220        C224   1.547       .  S
C220       C2194   1.540       .  S
C221        H228   1.086       .  S
C221        C222   1.357       .  D
C222        C223   1.548       .  S
C222       C2297   1.495       .  S
C223        C227   1.532       .  S
C223        C225   1.573       .  S
C223        H229   1.110       .  S
C224        H230   1.085       .  S
C224        C225   1.383       .  D
C225        C295   1.513       .  S
C226        H231   1.088       .  S
C226        C227   1.358       .  D
C227       C2377   1.481       .  S
C232        C233   1.522       .  S
C232        C238   1.524       .  S
C232        C236   1.553       .  S
C232       C2184   1.529       .  S
C233        H240   1.085       .  S
C233        C234   1.360       .  D
C234        C235   1.560       .  S
C234       C2174   1.515       .  S
C235        C239   1.534       .  S
C235        C237   1.575       .  S
C235        H241   1.109       .  S
C236        H242   1.084   1_565  S
C236        C237   1.388       .  D
C237        C301   1.514       .  S
C238        H243   1.088       .  S
C238        C239   1.349       .  D
C239       C2257   1.464       .  S
C244        C245   1.556       .  S
C244        C250   1.531       .  S
C244        C248   1.520       .  S
C244       C2164   1.529       .  S
C245        H252   1.083       .  S
C245        C246   1.388       .  D
C246        C247   1.559       .  S
C246        C296   1.496       .  S
C247        C251   1.528       .  S
C247        C249   1.554       .  S
C247        H253   1.111       .  S
C248        H254   1.090       .  S
C248        C249   1.347       .  D
C249       C2354   1.485       .  S
C250        H255   1.088       .  S
C250        C251   1.357       .  D
C251       C2507   1.471       .  S
C256        C257   1.528       .  S
C256        C262   1.537       .  S
C256        C260   1.550       .  S
C256       C2154   1.548       .  S
C257        H264   1.075       .  S
C257        C258   1.358       .  D
C258        C259   1.555       .  S
C258       C2484   1.496       .  S
C259        C263   1.534       .  S
C259        C261   1.569       .  S
C259        H265   1.108       .  S
C260        H266   1.085       .  S
C260        C261   1.383       .  D
C261        C300   1.515       .  S
C262        H267   1.086       .  S
C262        C263   1.361       .  D
C263       C2144   1.488       .  S
C268        C269   1.555       .  S
C268        C274   1.531       .  S
C268        C272   1.514       .  S
C268       C2707   1.530       .  S
C269        H276   1.084       .  S
C269        C270   1.387       .  D
C270        C271   1.560       .  S
C270        C298   1.497       .  S
C271        C275   1.535       .  S
C271        C273   1.551       .  S
C271        H277   1.110       .  S
C272        H278   1.089       .  S
C272        C273   1.349       .  D
C273       C2124   1.480       .  S
C274        H279   1.087       .  S
C274        C275   1.362       .  D
C275       C2134   1.481       .  S
O280        C296   1.281       .  A
O280       Zn286   2.089   1_455  S
C281        O297   1.284       .  A
C281        O294   1.279       .  A
O282        C295   1.288       .  A
O282       Cd289   2.154       .  S
O283        C301   1.276       .  A
O283       Cd292   2.084       .  S
O284        C298   1.281       .  A
O284       Cd288   2.130   1_565  S
O285        C296   1.280       .  A
O285       Cd288   2.104       .  S
Zn286       O297   2.099   1_545  S
Zn286       O299   2.069       .  S
Zn286       O291   2.003       .  S
O287        C298   1.279       .  A
O287       Cd292   2.104   1_455  S
Cd288       O290   2.098       .  S
Cd288       O291   2.038   1_455  S
Cd289       O293   2.170       .  S
Cd289       O302   2.176       .  S
Cd289       O291   2.056       .  S
O290        C300   1.278       .  A
O291       Cd292   2.028   1_545  S
Cd292       O294   2.110       .  S
O293        C300   1.290   1_655  A
C295        O299   1.280       .  A
C301        O302   1.290   1_565  A
O303        C319   1.267       .  A
O303       Zn309   1.950       .  S
C304        O320   1.274       .  A
C304        O317   1.275       .  A
C304       C2114   1.456       .  S
O305        C318   1.277       .  A
O305       Cd312   2.147       .  S
O306        C324   1.274       .  A
O306       Cd315   2.063       .  S
O307        C321   1.282       .  A
O307       Cd311   2.100       .  S
O308        C319   1.288       .  A
O308       Cd311   2.140       .  S
Zn309       O320   1.998       .  S
Zn309       O322   1.951       .  S
Zn309       O314   1.884       .  S
O310        C321   1.273       .  A
O310       Cd315   2.037       .  S
Cd311       O313   2.019       .  S
Cd311       O314   1.947       .  S
Cd312       O316   2.133       .  S
Cd312       O325   2.069       .  S
Cd312       O314   1.961       .  S
O313        C323   1.270       .  A
O314       Cd315   1.963       .  S
Cd315       O317   2.048       .  S
O316        C323   1.291       .  A
C318        O322   1.262       .  A
C318       C2094   1.502       .  S
C319       C2197   1.492       .  S
C321       C2084   1.495       .  S
C323       C2074   1.488       .  S
C324        O325   1.274       .  A
C324       C2104   1.478       .  S
O326        C342   1.264       .  A
O326       Zn332   1.925       .  S
C327        O343   1.272       .  A
C327        O340   1.278       .  A
C327       C2064   1.461       .  S
O328        C341   1.275       .  A
O328       Cd335   2.145       .  S
O329        C347   1.275   1_655  A
O329       Cd338   2.068       .  S
O330        C344   1.281       .  A
O330       Cd334   2.099       .  S
O331        C342   1.287       .  A
O331       Cd334   2.134       .  S
Zn332       O343   1.984       .  S
Zn332       O345   1.947   1_655  S
Zn332       O337   1.880       .  S
O333        C344   1.273       .  A
O333       Cd338   2.035       .  S
Cd334       O336   2.019       .  S
Cd334       O337   1.960       .  S
Cd335       O339   2.133       .  S
Cd335       O348   2.061       .  S
Cd335       O337   1.967   1_455  S
O336        C346   1.270   1_655  A
O337       Cd338   1.965       .  S
Cd338       O340   2.066       .  S
O339        C346   1.291       .  A
C341        O345   1.260       .  A
C341       C2054   1.501       .  S
C342       C2034   1.486       .  S
C344       C2177   1.497       .  S
C346       C2047   1.489       .  S
C347        O348   1.274       .  A
C347       C2137   1.473       .  S
C349        C350   1.525       .  S
C349        C355   1.525       .  S
C349        C353   1.548       .  S
C349       C2024   1.532       .  S
C350        H357   1.085       .  S
C350        C351   1.367       .  D
C351        C352   1.559       .  S
C351       C2057   1.507       .  S
C352        C356   1.536       .  S
C352        C354   1.574       .  S
C352        H358   1.111       .  S
C353        H359   1.085       .  S
C353        C354   1.383       .  D
C354        C439   1.508       .  S
C355        H360   1.089       .  S
C355        C356   1.348       .  D
C356       C2737   1.471       .  S
C361        C362   1.529       .  S
C361        C367   1.523       .  S
C361        C365   1.551       .  S
C361       C2464   1.535       .  S
C362        H369   1.083       .  S
C362        C363   1.366       .  D
C363        C364   1.562       .  S
C363       C2607   1.507       .  S
C364        C368   1.531       .  S
C364        C366   1.569       .  S
C364        H370   1.111       .  S
C365        H371   1.085       .  S
C365        C366   1.386       .  D
C366        C437   1.507       .  S
C367        H372   1.090       .  S
C367        C368   1.344       .  D
C368       C2387   1.467       .  S
C373        C374   1.554       .  S
C373        C379   1.522       .  S
C373        C377   1.518       .  S
C373       C2224   1.530       .  S
C374        H381   1.084       .  S
C374        C375   1.388       .  D
C375        C376   1.568       .  S
C375        C442   1.512       .  S
C376        C380   1.530       .  S
C376        C378   1.563       .  S
C376        H382   1.106       .  S
C377        H383   1.081       .  S
C377        C378   1.363       .  D
C378       C2014   1.517       .  S
C379        H384   1.089       .  S
C379        C380   1.351       .  D
C380       C2067   1.465       .  S
C385        C386   1.556       .  S
C385        C391   1.528       .  S
C385        C389   1.515       .  S
C385       C2407   1.535       .  S
C386        H393   1.084       .  S
C386        C387   1.388       .  D
C387        C388   1.562       .  S
C387        C436   1.511       .  S
C388        C392   1.530       .  S
C388        C390   1.554       .  S
C388        H394   1.108       .  S
C389        H395   1.086       .  S
C389        C390   1.359       .  D
C390       C2367   1.500       .  S
C391        H396   1.087       .  S
C391        C392   1.355       .  D
C392       C2117   1.461       .  S
C397        C398   1.529       .  S
C397        C403   1.521       .  S
C397        C401   1.555       .  S
C397       C2004   1.540       .  S
C398        H405   1.084       .  S
C398        C399   1.368       .  D
C399        C400   1.558       .  S
C399       C2097   1.507       .  S
C400        C404   1.531       .  S
C400        C402   1.570       .  S
C400        H406   1.111       .  S
C401        H407   1.084       .  S
C401        C402   1.385       .  D
C402        C422   1.514       .  S
C403        H408   1.089       .  S
C403        C404   1.347       .  D
C404       C1994   1.460       .  S
C409        C410   1.560       .  S
C409        C415   1.522       .  S
C409        C413   1.527       .  S
C409       C1987   1.539       .  S
C410        H417   1.082       .  S
C410        C411   1.386       .  D
C411        C412   1.567       .  S
C411        C441   1.511       .  S
C412        C416   1.533       .  S
C412        C414   1.551       .  S
C412        H418   1.110       .  S
C413        H419   1.087       .  S
C413        C414   1.360       .  D
C414       C2717   1.501       .  S
C415        H420   1.088       .  S
C415        C416   1.354       .  D
C416       C2614   1.461       .  S
O421        C437   1.284       .  A
O421       Zn427   2.101       .  S
C422        O438   1.284       .  A
C422        O435   1.285       .  A
O423        C436   1.285       .  A
O423       Cd430   2.147       .  S
O424        C442   1.279       .  A
O424       Cd433   2.096       .  S
O425        C439   1.281       .  A
O425       Cd429   2.124       .  S
O426        C437   1.281       .  A
O426       Cd429   2.125       .  S
Zn427       O438   2.108   1_455  S
Zn427       O440   2.060   1_455  S
Zn427       O432   1.995       .  S
O428        C439   1.285       .  A
O428       Cd433   2.145   1_455  S
Cd429       O431   2.087       .  S
Cd429       O432   2.039       .  S
Cd430       O434   2.165   1_655  S
Cd430       O443   2.159       .  S
Cd430       O432   2.064   1_655  S
O431        C441   1.276       .  A
O432       Cd433   2.038   1_455  S
Cd433       O435   2.142       .  S
O434        C441   1.288       .  A
C436        O440   1.280       .  A
C442        O443   1.287       .  A
C444        C445   1.562       .  S
C444        C450   1.535       .  S
C444        C448   1.520       .  S
C444       C1974   1.537       .  S
C445        H452   1.083       .  S
C445        C446   1.390       .  D
C446        C447   1.570       .  S
C446        C537   1.521       .  S
C447        C451   1.532       .  S
C447        C449   1.550       .  S
C447        H453   1.110       .  S
C448        H454   1.089       .  S
C448        C449   1.347       .  D
C449       C2417   1.491       .  S
C450        H455   1.087       .  S
C450        C451   1.358       .  D
C451       C2554   1.471       .  S
C456        C457   1.529       .  S
C456        C462   1.528       .  S
C456        C460   1.552       .  S
C456       C1964   1.538       .  S
C457        H464   1.081       .  S
C457        C458   1.366       .  D
C458        C459   1.562       .  S
C458       C2657   1.508       .  S
C459        C463   1.534       .  S
C459        C461   1.567       .  S
C459        H465   1.110       .  S
C460        H466   1.085       .  S
C460        C461   1.386       .  D
C461        C517   1.508       .  S
C462        H467   1.089       .  S
C462        C463   1.343       .  D
C463       C2434   1.469       .  S
C468        C469   1.546       .  S
C468        C474   1.537       .  S
C468        C472   1.529       .  S
C468       C1954   1.535       .  S
C469        H476   1.085       .  S
C469        C470   1.383       .  D
C470        C471   1.583       .  S
C470        C536   1.516       .  S
C471        C475   1.532       .  S
C471        C473   1.555       .  S
C471        H477   1.110       .  S
C472        H478   1.085       .  S
C472        C473   1.354       .  D
C473       C1934   1.502       .  S
C474        H479   1.088       .  S
C474        C475   1.357       .  D
C475       C1944   1.482       .  S
C480        C481   1.529       .  S
C480        C486   1.526       .  S
C480        C484   1.546       .  S
C480       C1924   1.531       .  S
C481        H488   1.081       .  S
C481        C482   1.368       .  D
C482        C483   1.562       .  S
C482       C1914   1.509       .  S
C483        C487   1.531       .  S
C483        C485   1.568       .  S
C483        H489   1.111       .  S
C484        H490   1.085       .  S
C484        C485   1.380       .  D
C485        C532   1.502       .  S
C486        H491   1.089       .  S
C486        C487   1.347       .  D
C487       C1904   1.467       .  S
C492        C493   1.553       .  S
C492        C498   1.525       .  S
C492        C496   1.521       .  S
C492       C1897   1.532       .  S
C493        H500   1.083       .  S
C493        C494   1.386       .  D
C494        C495   1.575       .  S
C494        C531   1.516       .  S
C495        C499   1.540       .  S
C495        C497   1.561       .  S
C495        H501   1.109       .  S
C496        H502   1.086       .  S
C496        C497   1.358       .  D
C497       C1887   1.514       .  S
C498        H503   1.088       .  S
C498        C499   1.354       .  D
C499       C2674   1.467       .  S
C504        C505   1.530       .  S
C504        C510   1.538       .  S
C504        C508   1.539       .  S
C504       C2587   1.539       .  S
C505        H512   1.079       .  S
C505        C506   1.359       .  D
C506        C507   1.574       .  S
C506       C2547   1.506       .  S
C507        C511   1.528       .  S
C507        C509   1.572       .  S
C507        H513   1.110       .  S
C508        H514   1.086       .  S
C508        C509   1.377       .  D
C509        C534   1.502       .  S
C510        H515   1.087       .  S
C510        C511   1.359       .  D
C511       C1877   1.489       .  S
O516        C532   1.283       .  A
O516       Zn522   2.092       .  S
C517        O533   1.284       .  A
C517        O530   1.283       .  A
O518        C531   1.290       .  A
O518       Cd525   2.170       .  S
O519        C537   1.279       .  A
O519       Cd528   2.100       .  S
O520        C534   1.283       .  A
O520       Cd524   2.130       .  S
O521        C532   1.280       .  A
O521       Cd524   2.118   1_556  S
Zn522       O533   2.099   1_556  S
Zn522       O535   2.056       .  S
Zn522       O527   1.994   1_556  S
O523        C534   1.281       .  A
O523       Cd528   2.123       .  S
Cd524       O526   2.091   1_554  S
Cd524       O527   2.038       .  S
Cd525       O529   2.182       .  S
Cd525       O538   2.185   1_556  S
Cd525       O527   2.055   1_556  S
O526        C536   1.276       .  A
O527       Cd528   2.039       .  S
Cd528       O530   2.133       .  S
O529        C536   1.292       .  A
C531        O535   1.278       .  A
C537        O538   1.291       .  A
O539        C555   1.269       .  A
O539       Zn545   1.965       .  S
C540        O556   1.277       .  A
C540        O553   1.275       .  A
C540       C1867   1.458       .  S
O541        C554   1.287       .  A
O541       Cd548   2.146       .  S
O542        C560   1.275       .  A
O542       Cd551   2.060       .  S
O543        C557   1.278       .  A
O543       Cd547   2.093       .  S
O544        C555   1.286       .  A
O544       Cd547   2.122       .  S
Zn545       O556   2.002       .  S
Zn545       O558   1.925       .  S
Zn545       O550   1.863       .  S
O546        C557   1.267       .  A
O546       Cd551   2.019       .  S
Cd547       O549   2.014       .  S
Cd547       O550   1.965       .  S
Cd548       O552   2.131       .  S
Cd548       O561   2.082       .  S
Cd548       O550   1.946       .  S
O549        C559   1.268       .  A
O550       Cd551   1.945       .  S
Cd551       O553   2.044       .  S
O552        C559   1.289       .  A
C554        O558   1.263       .  A
C554       C1854   1.474       .  S
C555       C2027   1.480       .  S
C557       C1917   1.490       .  S
C559       C1847   1.472       .  S
C560        O561   1.278       .  A
C560       C1947   1.475       .  S
C562        C563   1.545       .  S
C562        C568   1.543       .  S
C562        C566   1.535       .  S
C562       C2214   1.548       .  S
C563        H570   1.085       .  S
C563        C564   1.384       .  D
C564        C565   1.564       .  S
C564        C655   1.510       .  S
C565        C569   1.521       .  S
C565        C567   1.557       .  S
C565        H571   1.110       .  S
C566        H572   1.084       .  S
C566        C567   1.352       .  D
C567       C2424   1.494       .  S
C568        H573   1.086       .  S
C568        C569   1.358       .  D
C569       C1834   1.471       .  S
C574        C575   1.553       .  S
C574        C580   1.537       .  S
C574        C578   1.524       .  S
C574       C1824   1.553       .  S
C575        H582   1.085       .  S
C575        C576   1.387       .  D
C576        C577   1.564       .  S
C576        C649   1.516       .  S
C577        C581   1.539       .  S
C577        C579   1.556       .  S
C577        H583   1.110       .  S
C578        H584   1.082       .  S
C578        C579   1.352       .  D
C579       C1814   1.491       .  S
C580        H585   1.086       .  S
C580        C581   1.362       .  D
C581       C2107   1.483       .  S
C586        C587   1.539       .  S
C586        C592   1.532       .  S
C586        C590   1.539       .  S
C586       C1807   1.537       .  S
C587        H594   1.085       .  S
C587        C588   1.377       .  D
C588        C589   1.571       .  S
C588        C654   1.503       .  S
C589        C593   1.526       .  S
C589        C591   1.558       .  S
C589        H595   1.108       .  S
C590        H596   1.076       .  S
C590        C591   1.371       .  D
C591       C2727   1.523       .  S
C592        H597   1.089       .  S
C592        C593   1.349       .  D
C593       C1864   1.464       .  S
C598        C599   1.517       .  S
C598        C604   1.524       .  S
C598        C602   1.557       .  S
C598       C2577   1.525       .  S
C599        H606   1.089       .  S
C599        C600   1.347       .  D
C600        C601   1.553       .  S
C600       C1797   1.480       .  S
C601        C605   1.544       .  S
C601        C603   1.565       .  S
C601        H607   1.110       .  S
C602        H608   1.084       .  S
C602        C603   1.386       .  D
C603        C652   1.505       .  S
C604        H609   1.088       .  S
C604        C605   1.358       .  D
C605       C2747   1.480       .  S
C610        C611   1.522       .  S
C610        C616   1.523       .  S
C610        C614   1.553       .  S
C610       C2527   1.529       .  S
C611        H618   1.087       .  S
C611        C612   1.363       .  D
C612        C613   1.557       .  S
C612       C2087   1.503       .  S
C613        C617   1.536       .  S
C613        C615   1.564       .  S
C613        H619   1.110       .  S
C614        H620   1.084       .  S
C614        C615   1.383       .  D
C615        C635   1.502       .  S
C616        H621   1.088       .  S
C616        C617   1.351       .  D
C617       C2444   1.465       .  S
C622        C623   1.523       .  S
C622        C628   1.522       .  S
C622        C626   1.552       .  S
C622       C2454   1.528       .  S
C623        H630   1.086       .  S
C623        C624   1.362       .  D
C624        C625   1.557       .  S
C624       C1857   1.506       .  S
C625        C629   1.534       .  S
C625        C627   1.558       .  S
C625        H631   1.109       .  S
C626        H632   1.082       .  S
C626        C627   1.381       .  D
C627        C650   1.494       .  S
C628        H633   1.089       .  S
C628        C629   1.351       .  D
C629       C1784   1.460       .  S
O634        C650   1.283       .  A
O634       Zn640   2.088       .  S
C635        O651   1.282       .  A
C635        O648   1.284       .  A
O636        C649   1.286       .  A
O636       Cd643   2.148       .  S
O637        C655   1.282       .  A
O637       Cd646   2.117       .  S
O638        C652   1.277       .  A
O638       Cd642   2.097       .  S
O639        C650   1.277       .  A
O639       Cd642   2.101       .  S
Zn640       O651   2.084       .  S
Zn640       O653   2.073       .  S
Zn640       O645   1.991       .  S
O641        C652   1.287       .  A
O641       Cd646   2.163       .  S
Cd642       O644   2.077       .  S
Cd642       O645   2.032       .  S
Cd643       O647   2.146       .  S
Cd643       O656   2.134       .  S
Cd643       O645   2.047       .  S
O644        C654   1.274       .  A
O645       Cd646   2.042       .  S
Cd646       O648   2.130       .  S
O647        C654   1.286       .  A
C649        O653   1.280       .  A
C655        O656   1.284       .  A
O657        C673   1.275       .  A
O657       Zn663   1.991       .  S
C658        O674   1.270       .  A
C658        O671   1.286       .  A
C658       C1804   1.490       .  S
O659        C672   1.289       .  A
O659       Cd666   2.164       .  S
O660        C678   1.265       .  A
O660       Cd669   1.991       .  S
O661        C675   1.271       .  A
O661       Cd665   2.028       .  S
O662        C673   1.274       .  A
O662       Cd665   2.049       .  S
Zn663       O674   1.969       .  S
Zn663       O676   1.924       .  S
Zn663       O668   1.854       .  S
O664        C675   1.278       .  A
O664       Cd669   2.097       .  S
Cd665       O667   2.038       .  S
Cd665       O668   1.948       .  S
Cd666       O670   2.064       .  S
Cd666       O679   2.136       .  S
Cd666       O668   1.962       .  S
O667        C677   1.272       .  A
O668       Cd669   1.955       .  S
Cd669       O671   2.118       .  S
O670        C677   1.274       .  A
C672        O676   1.264       .  A
C672       C1884   1.484       .  S
C673       C1907   1.454       .  S
C675       C1764   1.498       .  S
C677       C1774   1.471       .  S
C678        O679   1.290       .  A
C678       C1757   1.484       .  S
O680        C696   1.274       .  A
O680       Zn686   1.978   1_565  S
C681        O697   1.271   1_565  A
C681        O694   1.288       .  A
C681       C1704   1.493       .  S
O682        C695   1.284       .  A
O682       Cd689   2.138       .  S
O683        C701   1.267       .  A
O683       Cd692   2.003   1_545  S
O684        C698   1.270       .  A
O684       Cd688   2.031       .  S
O685        C696   1.276       .  A
O685       Cd688   2.065       .  S
Zn686       O697   1.963       .  S
Zn686       O699   1.931       .  S
Zn686       O691   1.835       .  S
O687        C698   1.281       .  A
O687       Cd692   2.105       .  S
Cd688       O690   2.060   1_565  S
Cd688       O691   1.952   1_565  S
Cd689       O693   2.062       .  S
Cd689       O702   2.133       .  S
Cd689       O691   1.953       .  S
O690        C700   1.275       .  A
O691       Cd692   1.945   1_545  S
Cd692       O694   2.130       .  S
O693        C700   1.277       .  A
C695        O699   1.265       .  A
C695       C1714   1.470       .  S
C696       C1737   1.461       .  S
C698       C1724   1.491       .  S
C700       C1744   1.476       .  S
C701        O702   1.290       .  A
C701       C2167   1.484       .  S
O703        C719   1.263       .  A
O703       Zn709   1.910       .  S
C704        O720   1.272       .  A
C704        O717   1.276       .  A
C704       C1687   1.457       .  S
O705        C718   1.275       .  A
O705       Cd712   2.136       .  S
O706        C724   1.275       .  A
O706       Cd715   2.065   1_554  S
O707        C721   1.285       .  A
O707       Cd711   2.110       .  S
O708        C719   1.288       .  A
O708       Cd711   2.141       .  S
Zn709       O720   1.988       .  S
Zn709       O722   1.945   1_556  S
Zn709       O714   1.870       .  S
O710        C721   1.274       .  A
O710       Cd715   2.043       .  S
Cd711       O713   2.021       .  S
Cd711       O714   1.953       .  S
Cd712       O716   2.124       .  S
Cd712       O725   2.045       .  S
Cd712       O714   1.960   1_554  S
O713        C723   1.269   1_556  A
O714       Cd715   1.960       .  S
Cd715       O717   2.066       .  S
O716        C723   1.290       .  A
C718        O722   1.259       .  A
C718       C1664   1.497       .  S
C719       C1927   1.488       .  S
C721       C1674   1.493       .  S
C723       C1657   1.485       .  S
C724        O725   1.271       .  A
C724       C1697   1.474       .  S
C726        C727   1.548       .  S
C726        C732   1.524       .  S
C726        C730   1.522       .  S
C726       C1644   1.525       .  S
C727        H734   1.084   1_565  S
C727        C728   1.381       .  D
C728        C729   1.566       .  S
C728        C814   1.501       .  S
C729        C733   1.534       .  S
C729        C731   1.564       .  S
C729        H735   1.110       .  S
C730        H736   1.085       .  S
C730        C731   1.366       .  D
C731       C1767   1.513       .  S
C732        H737   1.089       .  S
C732        C733   1.348       .  D
C733       C1684   1.463       .  S
C738        C739   1.521       .  S
C738        C744   1.527       .  S
C738        C742   1.562       .  S
C738       C2647   1.535       .  S
C739        H746   1.089       .  S
C739        C740   1.347       .  D
C740        C741   1.549       .  S
C740       C1634   1.486       .  S
C741        C745   1.534       .  S
C741        C743   1.567       .  S
C741        H747   1.110       .  S
C742        H748   1.084       .  S
C742        C743   1.394       .  D
C743        C813   1.523       .  S
C744        H749   1.088       .  S
C744        C745   1.359       .  D
C745       C1777   1.468       .  S
C750        C751   1.524       .  S
C750        C756   1.521       .  S
C750        C754   1.553       .  S
C750       C1624   1.530       .  S
C751        H758   1.086       .  S
C751        C752   1.365       .  D
C752        C753   1.558       .  S
C752       C1667   1.511       .  S
C753        C757   1.531       .  S
C753        C755   1.574       .  S
C753        H759   1.110       .  S
C754        H760   1.084       .  S
C754        C755   1.388       .  D
C755        C818   1.516       .  S
C756        H761   1.089       .  S
C756        C757   1.345       .  D
C757       C1734   1.458       .  S
C762        C763   1.542       .  S
C762        C768   1.545       .  S
C762        C766   1.537       .  S
C762       C1614   1.550       .  S
C763        H770   1.085   1_554  S
C763        C764   1.383       .  D
C764        C765   1.571       .  S
C764        C816   1.507       .  S
C765        C769   1.519       .  S
C765        C767   1.559       .  S
C765        H771   1.110       .  S
C766        H772   1.075       .  S
C766        C767   1.358       .  D
C767       C1717   1.517       .  S
C768        H773   1.087       .  S
C768        C769   1.354       .  D
C769       C2564   1.471       .  S
C774        C775   1.555       .  S
C774        C780   1.524       .  S
C774        C778   1.531       .  S
C774       C1604   1.534       .  S
C775        H782   1.083       .  S
C775        C776   1.385       .  D
C776        C777   1.561       .  S
C776        C799   1.506       .  S
C777        C781   1.527       .  S
C777        C779   1.562       .  S
C777        H783   1.111       .  S
C778        H784   1.083       .  S
C778        C779   1.367       .  D
C779       C1594   1.511       .  S
C780        H785   1.089       .  S
C780        C781   1.344       .  D
C781       C1584   1.456       .  S
C786        C787   1.527       .  S
C786        C792   1.521       .  S
C786        C790   1.559       .  S
C786       C2287   1.537       .  S
C787        H794   1.087       .  S
C787        C788   1.362       .  D
C788        C789   1.552       .  S
C788       C2537   1.504       .  S
C789        C793   1.536       .  S
C789        C791   1.572       .  S
C789        H795   1.110       .  S
C790        H796   1.082       .  S
C790        C791   1.388       .  D
C791        C819   1.519       .  S
C792        H797   1.089       .  S
C792        C793   1.349       .  D
C793       C1574   1.464       .  S
O798        C814   1.283       .  A
O798       Zn804   2.100   1_565  S
C799        O815   1.287       .  A
C799        O812   1.279       .  A
O800        C813   1.288       .  A
O800       Cd807   2.167   1_556  S
O801        C819   1.280       .  A
O801       Cd810   2.107       .  S
O802        C816   1.282       .  A
O802       Cd806   2.133   1_545  S
O803        C814   1.279       .  A
O803       Cd806   2.109   1_556  S
Zn804       O815   2.118       .  S
Zn804       O817   2.087   1_545  S
Zn804       O809   2.003       .  S
O805        C816   1.282       .  A
O805       Cd810   2.132       .  S
Cd806       O808   2.103       .  S
Cd806       O809   2.042   1_564  S
Cd807       O811   2.171       .  S
Cd807       O820   2.177   1_565  S
Cd807       O809   2.063   1_564  S
O808        C818   1.279       .  A
O809       Cd810   2.044   1_556  S
Cd810       O812   2.114   1_554  S
O811        C818   1.290       .  A
C813        O817   1.283       .  A
C819        O820   1.291       .  A
O821        C837   1.275       .  A
O821       Zn827   2.010       .  S
C822        O838   1.275       .  A
C822        O835   1.291       .  A
C822       C2207   1.491       .  S
O823        C836   1.285       .  A
O823       Cd830   2.134       .  S
O824        C842   1.267   1_655  A
O824       Cd833   2.016       .  S
O825        C839   1.269       .  A
O825       Cd829   2.027       .  S
O826        C837   1.277       .  A
O826       Cd829   2.072       .  S
Zn827       O838   1.992       .  S
Zn827       O840   1.958   1_655  S
Zn827       O832   1.859       .  S
O828        C839   1.280       .  A
O828       Cd833   2.106       .  S
Cd829       O831   2.065       .  S
Cd829       O832   1.966       .  S
Cd830       O834   2.054       .  S
Cd830       O843   2.148       .  S
Cd830       O832   1.955   1_455  S
O831        C841   1.277   1_655  A
O832       Cd833   1.943       .  S
Cd833       O835   2.116       .  S
O834        C841   1.275       .  A
C836        O840   1.270       .  A
C836       C1534   1.477       .  S
C837       C1554   1.462       .  S
C839       C1544   1.500       .  S
C841       C1567   1.473       .  S
C842        O843   1.290       .  A
C842       C1984   1.496       .  S
O844        C860   1.274       .  A
O844       Zn850   1.988       .  S
C845        O861   1.267       .  A
C845        O858   1.288       .  A
C845       C1504   1.490       .  S
O846        C859   1.290       .  A
O846       Cd853   2.175       .  S
O847        C865   1.265   1_556  A
O847       Cd856   1.992       .  S
O848        C862   1.269       .  A
O848       Cd852   2.022       .  S
O849        C860   1.274       .  A
O849       Cd852   2.059       .  S
Zn850       O861   1.942       .  S
Zn850       O863   1.898   1_556  S
Zn850       O855   1.837       .  S
O851        C862   1.280       .  A
O851       Cd856   2.110       .  S
Cd852       O854   2.047   1_556  S
Cd852       O855   1.955       .  S
Cd853       O857   2.068       .  S
Cd853       O866   2.169       .  S
Cd853       O855   1.972   1_554  S
O854        C864   1.273       .  A
O855       Cd856   1.954       .  S
Cd856       O858   2.136       .  S
O857        C864   1.277       .  A
C859        O863   1.260       .  A
C859       C1514   1.497       .  S
C860       C1524   1.460       .  S
C862       C1597   1.496       .  S
C864       C1577   1.478       .  S
C865        O866   1.294       .  A
C865       C1977   1.493       .  S
O867        C883   1.277       .  A
O867       Zn873   2.018       .  S
C868        O884   1.267       .  A
C868        O881   1.285       .  A
C868       C1477   1.479       .  S
O869        C882   1.277       .  A
O869       Cd876   2.126       .  S
O870        C888   1.266   1_545  A
O870       Cd879   2.002       .  S
O871        C885   1.267       .  A
O871       Cd875   2.023       .  S
O872        C883   1.275       .  A
O872       Cd875   2.047       .  S
Zn873       O884   1.961       .  S
Zn873       O886   1.956   1_545  S
Zn873       O878   1.882       .  S
O874        C885   1.278       .  A
O874       Cd879   2.097       .  S
Cd875       O877   2.074       .  S
Cd875       O878   1.955       .  S
Cd876       O880   2.049       .  S
Cd876       O889   2.130       .  S
Cd876       O878   1.962   1_565  S
O877        C887   1.276   1_545  A
O878       Cd879   1.958       .  S
Cd879       O881   2.113       .  S
O880        C887   1.274       .  A
C882        O886   1.262       .  A
C882       C2127   1.492       .  S
C883       C2147   1.478       .  S
C885       C1487   1.490       .  S
C887       C1494   1.478       .  S
C888        O889   1.290       .  A
C888       C1647   1.486       .  S
C890        C891   1.549       .  S
C890        C896   1.530       .  S
C890        C894   1.539       .  S
C890       C1464   1.554       .  S
C891        H898   1.085   1_556  S
C891        C892   1.383       .  D
C892        C893   1.561       .  S
C892        C963   1.508       .  S
C893        C897   1.538       .  S
C893        C895   1.550       .  S
C893        H899   1.111       .  S
C894        H900   1.081       .  S
C894        C895   1.364       .  D
C895       C1484   1.500       .  S
C896        H901   1.087       .  S
C896        C897   1.352       .  D
C897       C1454   1.469       .  S
C902        C903   1.544       .  S
C902        C908   1.539       .  S
C902        C906   1.534       .  S
C902       C1707   1.544       .  S
C903        H910   1.085   1_565  S
C903        C904   1.380       .  D
C904        C905   1.568       .  S
C904        C980   1.506       .  S
C905        C909   1.526       .  S
C905        C907   1.554       .  S
C905        H911   1.111       .  S
C906        H912   1.079       .  S
C906        C907   1.360       .  D
C907       C1537   1.503       .  S
C908        H913   1.087       .  S
C908        C909   1.356       .  D
C909       C1694   1.473       .  S
C914        C915   1.555       .  S
C914        C920   1.531       .  S
C914        C918   1.518       .  S
C914       C2347   1.524       .  S
C915        H922   1.084       .  S
C915        C916   1.382       .  D
C916        C917   1.555       .  S
C916        C978   1.494       .  S
C917        C921   1.539       .  S
C917        C919   1.547       .  S
C917        H923   1.110       .  S
C918        H924   1.089       .  S
C918        C919   1.347       .  D
C919       C1517   1.475       .  S
C920        H925   1.087       .  S
C920        C921   1.363       .  D
C921       C2324   1.479       .  S
C926        C927   1.531       .  S
C926        C932   1.532       .  S
C926        C930   1.541       .  S
C926       C2637   1.531       .  S
C927        H934   1.081       .  S
C927        C928   1.365       .  D
C928        C929   1.568       .  S
C928       C2307   1.523       .  S
C929        C933   1.531       .  S
C929        C931   1.580       .  S
C929        H935   1.110       .  S
C930        H936   1.085       .  S
C930        C931   1.381       .  D
C931        C982   1.513       .  S
C932        H937   1.089       .  S
C932        C933   1.349       .  D
C933       C1557   1.475       .  S
C938        C939   1.529       .  S
C938        C944   1.527       .  S
C938        C942   1.557       .  S
C938       C2044   1.534       .  S
C939        H946   1.085       .  S
C939        C940   1.362       .  D
C940        C941   1.552       .  S
C940       C1677   1.500       .  S
C941        C945   1.533       .  S
C941        C943   1.563       .  S
C941        H947   1.110       .  S
C942        H948   1.083   1_455  S
C942        C943   1.386       .  D
C943        C983   1.509       .  S
C944        H949   1.089       .  S
C944        C945   1.348       .  D
C945       C1497   1.467       .  S
C950        C951   1.530       .  S
C950        C956   1.528       .  S
C950        C954   1.546       .  S
C950       C1444   1.540       .  S
C951        H958   1.077       .  S
C951        C952   1.365       .  D
C952        C953   1.552       .  S
C952       C1434   1.499       .  S
C953        C957   1.532       .  S
C953        C955   1.570       .  S
C953        H959   1.110       .  S
C954        H960   1.085       .  S
C954        C955   1.386       .  D
C955        C977   1.513       .  S
C956        H961   1.089       .  S
C956        C957   1.346       .  D
C957       C1527   1.465       .  S
O962        C978   1.283       .  A
O962       Zn968   2.093   1_554  S
C963        O979   1.283       .  A
C963        O976   1.283       .  A
O964        C977   1.284       .  A
O964       Cd971   2.138   1_545  S
O965        C983   1.279       .  A
O965       Cd974   2.093       .  S
O966        C980   1.281       .  A
O966       Cd970   2.126   1_465  S
O967        C978   1.278       .  A
O967       Cd970   2.091       .  S
Zn968       O979   2.091   1_655  S
Zn968       O981   2.083       .  S
Zn968       O973   2.001   1_656  S
O969        C980   1.283       .  A
O969       Cd974   2.135   1_554  S
Cd970       O972   2.098   1_545  S
Cd970       O973   2.037   1_655  S
Cd971       O975   2.162   1_556  S
Cd971       O984   2.154       .  S
Cd971       O973   2.051   1_666  S
O972        C982   1.277       .  A
O973       Cd974   2.036   1_544  S
Cd974       O976   2.139   1_565  S
O975        C982   1.289       .  A
C977        O981   1.281       .  A
C983        O984   1.287   1_455  A
O985       C1001   1.279       .  A
O985       Zn991   2.035       .  S
C986       O1002   1.276       .  A
C986        O999   1.288       .  A
C986       C1617   1.496       .  S
O987       C1000   1.285       .  A
O987       Cd994   2.139       .  S
O988       C1006   1.265   1_554  A
O988       Cd997   2.007       .  S
O989       C1003   1.265       .  A
O989       Cd993   2.018       .  S
O990       C1001   1.274       .  A
O990       Cd993   2.035       .  S
Zn991      O1002   2.005       .  S
Zn991      O1004   1.965   1_554  S
Zn991       O996   1.893       .  S
O992       C1003   1.276       .  A
O992       Cd997   2.099       .  S
Cd993       O995   2.076       .  S
Cd993       O996   1.960       .  S
Cd994       O998   2.065       .  S
Cd994      O1007   2.157       .  S
Cd994       O996   1.963   1_556  S
O995       C1005   1.277   1_554  A
O996       Cd997   1.974       .  S
Cd997       O999   2.114       .  S
O998       C1005   1.276       .  A
C1000      O1004   1.270       .  A
C1000      C1937   1.483       .  S
C1001      C1874   1.483       .  S
C1003      C1417   1.484       .  S
C1005      C1427   1.475       .  S
C1006      O1007   1.291       .  A
C1006      C1467   1.476       .  S
O1008      C1024   1.272       .  A
O1008     Zn1014   1.960       .  S
C1009      O1025   1.265       .  A
C1009      O1022   1.288       .  A
C1009      C1827   1.499       .  S
O1010      C1023   1.284       .  A
O1010     Cd1017   2.136       .  S
O1011      C1029   1.270       .  A
O1011     Cd1020   2.020       .  S
O1012      C1026   1.264       .  A
O1012     Cd1016   2.016       .  S
O1013      C1024   1.276       .  A
O1013     Cd1016   2.067       .  S
Zn1014     O1025   1.941       .  S
Zn1014     O1027   1.900       .  S
Zn1014     O1019   1.830       .  S
O1015      C1026   1.283       .  A
O1015     Cd1020   2.122       .  S
Cd1016     O1018   2.088       .  S
Cd1016     O1019   1.965       .  S
Cd1017     O1021   2.054       .  S
Cd1017     O1030   2.124       .  S
Cd1017     O1019   1.944       .  S
O1018      C1028   1.279       .  A
O1019     Cd1020   1.973       .  S
Cd1020     O1022   2.156       .  S
O1021      C1028   1.276       .  A
C1023      O1027   1.260       .  A
C1023      C2017   1.462       .  S
C1024      C1997   1.460       .  S
C1026      C1394   1.489       .  S
C1028      C1404   1.485       .  S
C1029      O1030   1.289       .  A
C1029      C1894   1.484       .  S
O1031      C1047   1.267       .  A
O1031     Zn1037   1.935       .  S
C1032      O1048   1.277       .  A
C1032      O1045   1.276       .  A
C1032      C1457   1.464       .  S
O1033      C1046   1.286       .  A
O1033     Cd1040   2.156       .  S
O1034      C1052   1.277       .  A
O1034     Cd1043   2.062   1_655  S
O1035      C1049   1.283       .  A
O1035     Cd1039   2.109       .  S
O1036      C1047   1.289       .  A
O1036     Cd1039   2.156       .  S
Zn1037     O1048   1.992       .  S
Zn1037     O1050   1.883   1_455  S
Zn1037     O1042   1.839       .  S
O1038      C1049   1.268       .  A
O1038     Cd1043   2.028       .  S
Cd1039     O1041   2.014   1_455  S
Cd1039     O1042   1.935       .  S
Cd1040     O1044   2.165       .  S
Cd1040     O1053   2.102       .  S
Cd1040     O1042   1.967   1_655  S
O1041      C1051   1.266       .  A
O1042     Cd1043   1.929       .  S
Cd1043     O1045   2.061       .  S
O1044      C1051   1.291       .  A
C1046      O1050   1.259       .  A
C1046      C1437   1.480       .  S
C1047      C2157   1.495       .  S
C1049      C1374   1.476       .  S
C1051      C2007   1.497       .  S
C1052      O1053   1.284       .  A
C1052      C1387   1.486       .  S
C1054      C1055   1.542       .  S
C1054      C1060   1.535       .  S
C1054      C1058   1.533       .  S
C1054      C1507   1.545       .  S
C1055      H1062   1.085       .  S
C1055      C1056   1.381       .  D
C1056      C1057   1.574       .  S
C1056      C1147   1.513       .  S
C1057      C1061   1.540       .  S
C1057      C1059   1.558       .  S
C1057      H1063   1.110       .  S
C1058      H1064   1.074       .  S
C1058      C1059   1.365       .  D
C1059      C1397   1.509       .  S
C1060      H1065   1.088       .  S
C1060      C1061   1.351       .  D
C1061      C1384   1.482       .  S
C1066      C1067   1.528       .  S
C1066      C1072   1.542       .  S
C1066      C1070   1.547       .  S
C1066      C1844   1.540       .  S
C1067      H1074   1.083       .  S
C1067      C1068   1.350       .  D
C1068      C1069   1.551       .  S
C1068      C1377   1.482       .  S
C1069      C1073   1.535       .  S
C1069      C1071   1.555       .  S
C1069      H1075   1.111       .  S
C1070      H1076   1.085       .  S
C1070      C1071   1.379       .  D
C1071      C1144   1.495       .  S
C1072      H1077   1.086       .  S
C1072      C1073   1.365       .  D
C1073      C1424   1.482       .  S
C1078      C1079   1.520       .  S
C1078      C1084   1.525       .  S
C1078      C1082   1.553       .  S
C1078      C2037   1.534       .  S
C1079      H1086   1.085       .  S
C1079      C1080   1.360       .  D
C1080      C1081   1.555       .  S
C1080      C2664   1.494       .  S
C1081      C1085   1.537       .  S
C1081      C1083   1.566       .  S
C1081      H1087   1.110       .  S
C1082      H1088   1.084       .  S
C1082      C1083   1.384       .  D
C1083      C1127   1.502       .  S
C1084      H1089   1.088       .  S
C1084      C1085   1.352       .  D
C1085      C1407   1.473       .  S
C1090      C1091   1.550       .  S
C1090      C1096   1.541       .  S
C1090      C1094   1.526       .  S
C1090      C2337   1.549       .  S
C1091      H1098   1.085       .  S
C1091      C1092   1.384       .  D
C1092      C1093   1.563       .  S
C1092      C1146   1.513       .  S
C1093      C1097   1.529       .  S
C1093      C1095   1.562       .  S
C1093      H1099   1.107       .  S
C1094      H1100   1.082       .  S
C1094      C1095   1.354       .  D
C1095      C1414   1.499       .  S
C1096      H1101   1.086       .  S
C1096      C1097   1.363       .  D
C1097      C2627   1.487       .  S
C1102      C1103   1.542       .  S
C1102      C1108   1.535       .  S
C1102      C1106   1.538       .  S
C1102      C2397   1.544       .  S
C1103      H1110   1.085       .  S
C1103      C1104   1.379       .  D
C1104      C1105   1.571       .  S
C1104      C1141   1.511       .  S
C1105      C1109   1.530       .  S
C1105      C1107   1.559       .  S
C1105      H1111   1.110       .  S
C1106      H1112   1.075       .  S
C1106      C1107   1.367       .  D
C1107      C1547   1.514       .  S
C1108      H1113   1.088       .  S
C1108      C1109   1.351       .  D
C1109      C2687   1.465       .  S
C1114      C1115   1.516       .  S
C1114      C1120   1.529       .  S
C1114      C1118   1.556       .  S
C1114      C1654   1.532       .  S
C1115      H1122   1.089       .  S
C1115      C1116   1.347       .  D
C1116      C1117   1.557       .  S
C1116      C2597   1.487       .  S
C1117      C1121   1.537       .  S
C1117      C1119   1.564       .  S
C1117      H1123   1.110       .  S
C1118      H1124   1.083       .  S
C1118      C1119   1.386       .  D
C1119      C1142   1.504       .  S
C1120      H1125   1.087       .  S
C1120      C1121   1.361       .  D
C1121      C1564   1.481       .  S
O1126      C1142   1.281       .  A
O1126     Zn1132   2.078   1_455  S
C1127      O1143   1.283       .  A
C1127      O1140   1.281       .  A
O1128      C1141   1.288       .  A
O1128     Cd1135   2.158       .  S
O1129      C1147   1.278       .  A
O1129     Cd1138   2.103       .  S
O1130      C1144   1.280       .  A
O1130     Cd1134   2.108   1_556  S
O1131      C1142   1.282       .  A
O1131     Cd1134   2.137       .  S
Zn1132     O1143   2.091   1_554  S
Zn1132     O1145   2.046       .  S
Zn1132     O1137   1.992   1_654  S
O1133      C1144   1.282       .  A
O1133     Cd1138   2.126   1_455  S
Cd1134     O1136   2.100       .  S
Cd1134     O1137   2.036   1_554  S
Cd1135     O1139   2.156   1_655  S
Cd1135     O1148   2.156   1_554  S
Cd1135     O1137   2.050   1_654  S
O1136      C1146   1.279       .  A
O1137     Cd1138   2.043   1_455  S
Cd1138     O1140   2.121       .  S
O1139      C1146   1.286       .  A
C1141      O1145   1.277       .  A
C1147      O1148   1.288       .  A
O1149      C1165   1.269       .  A
O1149     Zn1155   1.966       .  S
C1150      O1166   1.277       .  A
C1150      O1163   1.277       .  A
C1150      C1837   1.474       .  S
O1151      C1164   1.283       .  A
O1151     Cd1158   2.140       .  S
O1152      C1170   1.275       .  A
O1152     Cd1161   2.065       .  S
O1153      C1167   1.281       .  A
O1153     Cd1157   2.104       .  S
O1154      C1165   1.287       .  A
O1154     Cd1157   2.123       .  S
Zn1155     O1166   2.004       .  S
Zn1155     O1168   1.955       .  S
Zn1155     O1160   1.877       .  S
O1156      C1167   1.270       .  A
O1156     Cd1161   2.033       .  S
Cd1157     O1159   2.007       .  S
Cd1157     O1160   1.952       .  S
Cd1158     O1162   2.140       .  S
Cd1158     O1171   2.059       .  S
Cd1158     O1160   1.947       .  S
O1159      C1169   1.267       .  A
O1160     Cd1161   1.950       .  S
Cd1161     O1163   2.045       .  S
O1162      C1169   1.292       .  A
C1164      O1168   1.265       .  A
C1164      C1794   1.495       .  S
C1165      C1967   1.491       .  S
C1167      C1357   1.494       .  S
C1169      C1627   1.490       .  S
C1170      O1171   1.275       .  A
C1170      C1364   1.477       .  S
O1172      C1188   1.272       .  A
O1172     Zn1178   1.967       .  S
C1173      O1189   1.264       .  A
C1173      O1186   1.286       .  A
C1173      C1957   1.486       .  S
O1174      C1187   1.279       .  A
O1174     Cd1181   2.148       .  S
O1175      C1193   1.269       .  A
O1175     Cd1184   2.011       .  S
O1176      C1190   1.269       .  A
O1176     Cd1180   2.030       .  S
O1177      C1188   1.279       .  A
O1177     Cd1180   2.074       .  S
Zn1178     O1189   1.929       .  S
Zn1178     O1191   1.952       .  S
Zn1178     O1183   1.865       .  S
O1179      C1190   1.280       .  A
O1179     Cd1184   2.099       .  S
Cd1180     O1182   2.089       .  S
Cd1180     O1183   1.966       .  S
Cd1181     O1185   2.050       .  S
Cd1181     O1194   2.152       .  S
Cd1181     O1183   1.944       .  S
O1182      C1192   1.279       .  A
O1183     Cd1184   1.960       .  S
Cd1184     O1186   2.134       .  S
O1185      C1192   1.276       .  A
C1187      O1191   1.261       .  A
C1187      C1817   1.500       .  S
C1188      C1787   1.461       .  S
C1190      C1334   1.487       .  S
C1192      C1344   1.481       .  S
C1193      O1194   1.294       .  A
C1193      C1607   1.491       .  S
O1195      C1211   1.270       .  A
O1195     Zn1201   1.960       .  S
C1196      O1212   1.276       .  A
C1196      O1209   1.275       .  A
C1196      C1587   1.458       .  S
O1197      C1210   1.287       .  A
O1197     Cd1204   2.158       .  S
O1198      C1216   1.275   1_545  A
O1198     Cd1207   2.059       .  S
O1199      C1213   1.279       .  A
O1199     Cd1203   2.109       .  S
O1200      C1211   1.288       .  A
O1200     Cd1203   2.122       .  S
Zn1201     O1212   1.987       .  S
Zn1201     O1214   1.919   1_545  S
Zn1201     O1206   1.840       .  S
O1202      C1213   1.265       .  A
O1202     Cd1207   2.014       .  S
Cd1203     O1205   2.003       .  S
Cd1203     O1206   1.961       .  S
Cd1204     O1208   2.139       .  S
Cd1204     O1217   2.046       .  S
Cd1204     O1206   1.951   1_565  S
O1205      C1215   1.266       .  A
O1206     Cd1207   1.952       .  S
Cd1207     O1209   2.044       .  S
O1208      C1215   1.292   1_565  A
C1210      O1214   1.264       .  A
C1210      C1637   1.491       .  S
C1211      C1447   1.490       .  S
C1213      C1314   1.495       .  S
C1215      C2187   1.487   1_545  S
C1216      O1217   1.274       .  A
C1216      C1324   1.476       .  S
C1218      C1219   1.550       .  S
C1218      C1224   1.527       .  S
C1218      C1222   1.524       .  S
C1218      C1474   1.530       .  S
C1219      H1226   1.085       .  S
C1219      C1220   1.387       .  D
C1220      C1221   1.567       .  S
C1220      C1308   1.500       .  S
C1221      C1225   1.535       .  S
C1221      C1223   1.557       .  S
C1221      H1227   1.111       .  S
C1222      H1228   1.086       .  S
C1222      C1223   1.362       .  D
C1223      C1337   1.498       .  S
C1224      H1229   1.089       .  S
C1224      C1225   1.348       .  D
C1225      C2494   1.473       .  S
C1230      C1231   1.550       .  S
C1230      C1236   1.521       .  S
C1230      C1234   1.518       .  S
C1230      C1754   1.526       .  S
C1231      H1238   1.082       .  S
C1231      C1232   1.382       .  D
C1232      C1233   1.564       .  S
C1232      C1306   1.495       .  S
C1233      C1237   1.541       .  S
C1233      C1235   1.560       .  S
C1233      H1239   1.110       .  S
C1234      H1240   1.087       .  S
C1234      C1235   1.356       .  D
C1235      C2237   1.506       .  S
C1236      H1241   1.088       .  S
C1236      C1237   1.354       .  D
C1237      C1327   1.464       .  S
C1242      C1243   1.527       .  S
C1242      C1248   1.525       .  S
C1242      C1246   1.552       .  S
C1242      C2077   1.533       .  S
C1243      H1250   1.085       .  S
C1243      C1244   1.363       .  D
C1244      C1245   1.561       .  S
C1244      C1317   1.506       .  S
C1245      C1249   1.537       .  S
C1245      C1247   1.572       .  S
C1245      H1251   1.110       .  S
C1246      H1252   1.083       .  S
C1246      C1247   1.385       .  D
C1247      C1310   1.513       .  S
C1248      H1253   1.089       .  S
C1248      C1249   1.347       .  D
C1249      C1347   1.473       .  S
C1254      C1255   1.555       .  S
C1254      C1260   1.524       .  S
C1254      C1258   1.525       .  S
C1254      C2697   1.534       .  S
C1255      H1262   1.083       .  S
C1255      C1256   1.385       .  D
C1256      C1257   1.563       .  S
C1256      C1291   1.504       .  S
C1257      C1261   1.539       .  S
C1257      C1259   1.555       .  S
C1257      H1263   1.110       .  S
C1258      H1264   1.087       .  S
C1258      C1259   1.361       .  D
C1259      C1727   1.500       .  S
C1260      H1265   1.089       .  S
C1260      C1261   1.350       .  D
C1261      C1367   1.471       .  S
C1266      C1267   1.540       .  S
C1266      C1272   1.534       .  S
C1266      C1270   1.539       .  S
C1266      C2277   1.542       .  S
C1267      H1274   1.076       .  S
C1267      C1268   1.368       .  D
C1268      C1269   1.557       .  S
C1268      C1354   1.517       .  S
C1269      C1273   1.531       .  S
C1269      C1271   1.570       .  S
C1269      H1275   1.109       .  S
C1270      H1276   1.085   1_565  S
C1270      C1271   1.379       .  D
C1271      C1305   1.510       .  S
C1272      H1277   1.088       .  S
C1272      C1273   1.350       .  D
C1273      C2264   1.467       .  S
C1278      C1279   1.534       .  S
C1278      C1284   1.534       .  S
C1278      C1282   1.544       .  S
C1278      C2517   1.547       .  S
C1279      H1286   1.078       .  S
C1279      C1280   1.365       .  D
C1280      C1281   1.552       .  S
C1280      C2474   1.504       .  S
C1281      C1285   1.534       .  S
C1281      C1283   1.562       .  S
C1281      H1287   1.109       .  S
C1282      H1288   1.085       .  S
C1282      C1283   1.382       .  D
C1283      C1311   1.504       .  S
C1284      H1289   1.088       .  S
C1284      C1285   1.351       .  D
C1285      C1747   1.467       .  S
O1290      C1306   1.282       .  A
O1290     Zn1296   2.086       .  S
C1291      O1307   1.282       .  A
C1291      O1304   1.282       .  A
O1292      C1305   1.286   1_545  A
O1292     Cd1299   2.145       .  S
O1293      C1311   1.279       .  A
O1293     Cd1302   2.096       .  S
O1294      C1308   1.281       .  A
O1294     Cd1298   2.123       .  S
O1295      C1306   1.280       .  A
O1295     Cd1298   2.105   1_565  S
Zn1296     O1307   2.085       .  S
Zn1296     O1309   2.061       .  S
Zn1296     O1301   1.996   1_565  S
O1297      C1308   1.281       .  A
O1297     Cd1302   2.125       .  S
Cd1298     O1300   2.100       .  S
Cd1298     O1301   2.032       .  S
Cd1299     O1303   2.160       .  S
Cd1299     O1312   2.136       .  S
Cd1299     O1301   2.047       .  S
O1300      C1310   1.277       .  A
O1301     Cd1302   2.039       .  S
Cd1302     O1304   2.131   1_545  S
O1303      C1310   1.288       .  A
C1305      O1309   1.278       .  A
C1311      O1312   1.285       .  A
C1313      C1314   1.405       .  A
C1313      C1318   1.402       .  A
C1313      H1320   1.083       .  S
C1314      C1315   1.414       .  A
C1315      C1316   1.405       .  A
C1315      F1322   1.357       .  S
C1316      C1317   1.403       .  A
C1316      H1321   1.081       .  S
C1317      C1318   1.414       .  A
C1318      F1319   1.358       .  S
C1323      C1324   1.405   1_545  A
C1323      C1328   1.397   1_545  A
C1323      H1330   1.083       .  S
C1324      C1325   1.409       .  A
C1325      C1326   1.389       .  A
C1325      F1332   1.358       .  S
C1326      C1327   1.396       .  A
C1326      H1331   1.078       .  S
C1327      C1328   1.406       .  A
C1328      F1329   1.358       .  S
C1333      C1334   1.405       .  A
C1333      C1338   1.398       .  A
C1333      H1340   1.083       .  S
C1334      C1335   1.410       .  A
C1335      C1336   1.405       .  A
C1335      F1342   1.357       .  S
C1336      C1337   1.404       .  A
C1336      H1341   1.079       .  S
C1337      C1338   1.411       .  A
C1338      F1339   1.358       .  S
C1343      C1344   1.402       .  A
C1343      C1348   1.388       .  A
C1343      H1350   1.083       .  S
C1344      C1345   1.410       .  A
C1345      C1346   1.404       .  A
C1345      F1352   1.355       .  S
C1346      C1347   1.403       .  A
C1346      H1351   1.083       .  S
C1347      C1348   1.404       .  A
C1348      F1349   1.355       .  S
C1353      C1354   1.412       .  A
C1353      C1358   1.400       .  A
C1353      H1360   1.083       .  S
C1354      C1355   1.413       .  A
C1355      C1356   1.407       .  A
C1355      F1362   1.353       .  S
C1356      C1357   1.408       .  A
C1356      H1361   1.083       .  S
C1357      C1358   1.408       .  A
C1358      F1359   1.358       .  S
C1363      C1364   1.402       .  A
C1363      C1368   1.391       .  A
C1363      H1370   1.083       .  S
C1364      C1365   1.410       .  A
C1365      C1366   1.401       .  A
C1365      F1372   1.355       .  S
C1366      C1367   1.400       .  A
C1366      H1371   1.083       .  S
C1367      C1368   1.407       .  A
C1368      F1369   1.357       .  S
C1373      C1374   1.402       .  A
C1373      C1378   1.401       .  A
C1373      H1380   1.083       .  S
C1374      C1375   1.408       .  A
C1375      C1376   1.400       .  A
C1375      F1382   1.358       .  S
C1376      C1377   1.404       .  A
C1376      H1381   1.084       .  S
C1377      C1378   1.411       .  A
C1378      F1379   1.354       .  S
C1383      C1384   1.400       .  A
C1383      C1388   1.404       .  A
C1383      H1390   1.083       .  S
C1384      C1385   1.409       .  A
C1385      C1386   1.395       .  A
C1385      F1392   1.358       .  S
C1386      C1387   1.402       .  A
C1386      H1391   1.083       .  S
C1387      C1388   1.415       .  A
C1388      F1389   1.357   1_655  S
C1393      C1394   1.410       .  A
C1393      C1398   1.404       .  A
C1393      H1400   1.083       .  S
C1394      C1395   1.405       .  A
C1395      C1396   1.399       .  A
C1395      F1402   1.357       .  S
C1396      C1397   1.414       .  A
C1396      H1401   1.083       .  S
C1397      C1398   1.408       .  A
C1398      F1399   1.354       .  S
C1403      C1404   1.406       .  A
C1403      C1408   1.388       .  A
C1403      H1410   1.083       .  S
C1404      C1405   1.412       .  A
C1405      C1406   1.405       .  A
C1405      F1412   1.356       .  S
C1406      C1407   1.403       .  A
C1406      H1411   1.083       .  S
C1407      C1408   1.402       .  A
C1408      F1409   1.358       .  S
C1413      C1414   1.410       .  A
C1413      C1418   1.404       .  A
C1413      H1420   1.083       .  S
C1414      C1415   1.412       .  A
C1415      C1416   1.400       .  A
C1415      F1422   1.348       .  S
C1416      C1417   1.400       .  A
C1416      H1421   1.084       .  S
C1417      C1418   1.408       .  A
C1418      F1419   1.358       .  S
C1423      C1424   1.401       .  A
C1423      C1428   1.398       .  A
C1423      H1430   1.082       .  S
C1424      C1425   1.408       .  A
C1425      C1426   1.396       .  A
C1425      F1432   1.358       .  S
C1426      C1427   1.403       .  A
C1426      H1431   1.083       .  S
C1427      C1428   1.408       .  A
C1428      F1429   1.358       .  S
C1433      C1434   1.410       .  A
C1433      C1438   1.411       .  A
C1433      H1440   1.080       .  S
C1434      C1435   1.405       .  A
C1435      C1436   1.389       .  A
C1435      F1442   1.358       .  S
C1436      C1437   1.409       .  A
C1436      H1441   1.084       .  S
C1437      C1438   1.406       .  A
C1438      F1439   1.357       .  S
C1443      C1444   1.423       .  A
C1443      C1448   1.396       .  A
C1443      H1450   1.075       .  S
C1444      C1445   1.410       .  A
C1445      C1446   1.403       .  A
C1445      F1452   1.357       .  S
C1446      C1447   1.413       .  A
C1446      H1451   1.083       .  S
C1447      C1448   1.398       .  A
C1448      F1449   1.358       .  S
C1453      C1454   1.399       .  A
C1453      C1458   1.398       .  A
C1453      H1460   1.084       .  S
C1454      C1455   1.411       .  A
C1455      C1456   1.388       .  A
C1455      F1462   1.357       .  S
C1456      C1457   1.395       .  A
C1456      H1461   1.084       .  S
C1457      C1458   1.408       .  A
C1458      F1459   1.356       .  S
C1463      C1464   1.415       .  A
C1463      C1468   1.405       .  A
C1463      H1470   1.083       .  S
C1464      C1465   1.418       .  A
C1465      C1466   1.403       .  A
C1465      F1472   1.357       .  S
C1466      C1467   1.402       .  A
C1466      H1471   1.084       .  S
C1467      C1468   1.406       .  A
C1468      F1469   1.358       .  S
C1473      C1474   1.400       .  A
C1473      C1478   1.406       .  A
C1473      H1480   1.082       .  S
C1474      C1475   1.428       .  A
C1475      C1476   1.390       .  A
C1475      F1482   1.359       .  S
C1476      C1477   1.388       .  A
C1476      H1481   1.084       .  S
C1477      C1478   1.419       .  A
C1478      F1479   1.358   1_545  S
C1483      C1484   1.402       .  A
C1483      C1488   1.402       .  A
C1483      H1490   1.081       .  S
C1484      C1485   1.412       .  A
C1485      C1486   1.400       .  A
C1485      F1492   1.358       .  S
C1486      C1487   1.405       .  A
C1486      H1491   1.083       .  S
C1487      C1488   1.413       .  A
C1488      F1489   1.357       .  S
C1493      C1494   1.404       .  A
C1493      C1498   1.390       .  A
C1493      H1500   1.083       .  S
C1494      C1495   1.410       .  A
C1495      C1496   1.400       .  A
C1495      F1502   1.354   1_565  S
C1496      C1497   1.400       .  A
C1496      H1501   1.084       .  S
C1497      C1498   1.404       .  A
C1498      F1499   1.357       .  S
C1503      C1504   1.413       .  A
C1503      C1508   1.400       .  A
C1503      H1510   1.083       .  S
C1504      C1505   1.401       .  A
C1505      C1506   1.401       .  A
C1505      F1512   1.357       .  S
C1506      C1507   1.420       .  A
C1506      H1511   1.076       .  S
C1507      C1508   1.408       .  A
C1508      F1509   1.358       .  S
C1513      C1514   1.404       .  A
C1513      C1518   1.409       .  A
C1513      H1520   1.083       .  S
C1514      C1515   1.425       .  A
C1515      C1516   1.391       .  A
C1515      F1522   1.358       .  S
C1516      C1517   1.390       .  A
C1516      H1521   1.084       .  S
C1517      C1518   1.413       .  A
C1518      F1519   1.357       .  S
C1523      C1524   1.396       .  A
C1523      C1528   1.389       .  A
C1523      H1530   1.084       .  S
C1524      C1525   1.407       .  A
C1525      C1526   1.396       .  A
C1525      F1532   1.357       .  S
C1526      C1527   1.398       .  A
C1526      H1531   1.084       .  S
C1527      C1528   1.409       .  A
C1528      F1529   1.357       .  S
C1533      C1534   1.395       .  A
C1533      C1538   1.401       .  A
C1533      H1540   1.083       .  S
C1534      C1535   1.414       .  A
C1535      C1536   1.405       .  A
C1535      F1542   1.357       .  S
C1536      C1537   1.397       .  A
C1536      H1541   1.083       .  S
C1537      C1538   1.423       .  A
C1538      F1539   1.358       .  S
C1543      C1544   1.405       .  A
C1543      C1548   1.401       .  A
C1543      H1550   1.083       .  S
C1544      C1545   1.415       .  A
C1545      C1546   1.409       .  A
C1545      F1552   1.357       .  S
C1546      C1547   1.406       .  A
C1546      H1551   1.080       .  S
C1547      C1548   1.414       .  A
C1548      F1549   1.358       .  S
C1553      C1554   1.405       .  A
C1553      C1558   1.400       .  A
C1553      H1560   1.081       .  S
C1554      C1555   1.398       .  A
C1555      C1556   1.393       .  A
C1555      F1562   1.358       .  S
C1556      C1557   1.407       .  A
C1556      H1561   1.084       .  S
C1557      C1558   1.401       .  A
C1558      F1559   1.357       .  S
C1563      C1564   1.407       .  A
C1563      C1568   1.393       .  A
C1563      H1570   1.084       .  S
C1564      C1565   1.402       .  A
C1565      C1566   1.396       .  A
C1565      F1572   1.356       .  S
C1566      C1567   1.407       .  A
C1566      H1571   1.083       .  S
C1567      C1568   1.403       .  A
C1568      F1569   1.357       .  S
C1573      C1574   1.398       .  A
C1573      C1578   1.396       .  A
C1573      H1580   1.084       .  S
C1574      C1575   1.406       .  A
C1575      C1576   1.391       .  A
C1575      F1582   1.357       .  S
C1576      C1577   1.403       .  A
C1576      H1581   1.083       .  S
C1577      C1578   1.411       .  A
C1578      F1579   1.355   1_554  S
C1583      C1584   1.403       .  A
C1583      C1588   1.386       .  A
C1583      H1590   1.079       .  S
C1584      C1585   1.398       .  A
C1585      C1586   1.392       .  A
C1585      F1592   1.358       .  S
C1586      C1587   1.406       .  A
C1586      H1591   1.083       .  S
C1587      C1588   1.399       .  A
C1588      F1589   1.358       .  S
C1593      C1594   1.402       .  A
C1593      C1598   1.402       .  A
C1593      H1600   1.080       .  S
C1594      C1595   1.415       .  A
C1595      C1596   1.405       .  A
C1595      F1602   1.357       .  S
C1596      C1597   1.407       .  A
C1596      H1601   1.083       .  S
C1597      C1598   1.412       .  A
C1598      F1599   1.357       .  S
C1603      C1604   1.425       .  A
C1603      C1608   1.396       .  A
C1603      H1610   1.083       .  S
C1604      C1605   1.402       .  A
C1605      C1606   1.403       .  A
C1605      F1612   1.355       .  S
C1606      C1607   1.419       .  A
C1606      H1611   1.083       .  S
C1607      C1608   1.396       .  A
C1608      F1609   1.357       .  S
C1613      C1614   1.411   1_556  A
C1613      C1618   1.406   1_556  A
C1613      H1620   1.084       .  S
C1614      C1615   1.422       .  A
C1615      C1616   1.402       .  A
C1615      F1622   1.354       .  S
C1616      C1617   1.401       .  A
C1616      H1621   1.083       .  S
C1617      C1618   1.415       .  A
C1618      F1619   1.357   1_554  S
C1623      C1624   1.397       .  A
C1623      C1628   1.405       .  A
C1623      H1630   1.081       .  S
C1624      C1625   1.426       .  A
C1625      C1626   1.391       .  A
C1625      F1632   1.359       .  S
C1626      C1627   1.392       .  A
C1626      H1631   1.083       .  S
C1627      C1628   1.425       .  A
C1628      F1629   1.358       .  S
C1633      C1634   1.419       .  A
C1633      C1638   1.409       .  A
C1633      H1640   1.083       .  S
C1634      C1635   1.390       .  A
C1635      C1636   1.393       .  A
C1635      F1642   1.357       .  S
C1636      C1637   1.416       .  A
C1636      H1641   1.079   1_565  S
C1637      C1638   1.401       .  A
C1638      F1639   1.357       .  S
C1643      C1644   1.396       .  A
C1643      C1648   1.400   1_565  A
C1643      H1650   1.081   1_565  S
C1644      C1645   1.424       .  A
C1645      C1646   1.393       .  A
C1645      F1652   1.359       .  S
C1646      C1647   1.393       .  A
C1646      H1651   1.083       .  S
C1647      C1648   1.424   1_565  A
C1648      F1649   1.358       .  S
C1653      C1654   1.420       .  A
C1653      C1658   1.390       .  A
C1653      H1660   1.084       .  S
C1654      C1655   1.404       .  A
C1655      C1656   1.407       .  A
C1655      F1662   1.355   1_554  S
C1656      C1657   1.418       .  A
C1656      H1661   1.083   1_554  S
C1657      C1658   1.394       .  A
C1658      F1659   1.357       .  S
C1663      C1664   1.408       .  A
C1663      C1668   1.413       .  A
C1663      H1670   1.083       .  S
C1664      C1665   1.412       .  A
C1665      C1666   1.394       .  A
C1665      F1672   1.358       .  S
C1666      C1667   1.407       .  A
C1666      H1671   1.083       .  S
C1667      C1668   1.413       .  A
C1668      F1669   1.355       .  S
C1673      C1674   1.406       .  A
C1673      C1678   1.401       .  A
C1673      H1680   1.083       .  S
C1674      C1675   1.414       .  A
C1675      C1676   1.401       .  A
C1675      F1682   1.357       .  S
C1676      C1677   1.403       .  A
C1676      H1681   1.081       .  S
C1677      C1678   1.413       .  A
C1678      F1679   1.358       .  S
C1683      C1684   1.402       .  A
C1683      C1688   1.396       .  A
C1683      H1690   1.084       .  S
C1684      C1685   1.406       .  A
C1685      C1686   1.388       .  A
C1685      F1692   1.354       .  S
C1686      C1687   1.396       .  A
C1686      H1691   1.084       .  S
C1687      C1688   1.402       .  A
C1688      F1689   1.354       .  S
C1693      C1694   1.400       .  A
C1693      C1698   1.396       .  A
C1693      H1700   1.083       .  S
C1694      C1695   1.405       .  A
C1695      C1696   1.392       .  A
C1695      F1702   1.358       .  S
C1696      C1697   1.402       .  A
C1696      H1701   1.083       .  S
C1697      C1698   1.411       .  A
C1698      F1699   1.358       .  S
C1703      C1704   1.412       .  A
C1703      C1708   1.400       .  A
C1703      H1710   1.083   1_565  S
C1704      C1705   1.401       .  A
C1705      C1706   1.402       .  A
C1705      F1712   1.358       .  S
C1706      C1707   1.421       .  A
C1706      H1711   1.074       .  S
C1707      C1708   1.409       .  A
C1708      F1709   1.358   1_565  S
C1713      C1714   1.392       .  A
C1713      C1718   1.399       .  A
C1713      H1720   1.083       .  S
C1714      C1715   1.409       .  A
C1715      C1716   1.406       .  A
C1715      F1722   1.356       .  S
C1716      C1717   1.401       .  A
C1716      H1721   1.082       .  S
C1717      C1718   1.431       .  A
C1718      F1719   1.357       .  S
C1723      C1724   1.411       .  A
C1723      C1728   1.402       .  A
C1723      H1730   1.083       .  S
C1724      C1725   1.408       .  A
C1725      C1726   1.399       .  A
C1725      F1732   1.357       .  S
C1726      C1727   1.411       .  A
C1726      H1731   1.083       .  S
C1727      C1728   1.406       .  A
C1728      F1729   1.355       .  S
C1733      C1734   1.399       .  A
C1733      C1738   1.394       .  A
C1733      H1740   1.084       .  S
C1734      C1735   1.406       .  A
C1735      C1736   1.386       .  A
C1735      F1742   1.356       .  S
C1736      C1737   1.397       .  A
C1736      H1741   1.084       .  S
C1737      C1738   1.406       .  A
C1738      F1739   1.353   1_565  S
C1743      C1744   1.401       .  A
C1743      C1748   1.388       .  A
C1743      H1750   1.083       .  S
C1744      C1745   1.412       .  A
C1745      C1746   1.400       .  A
C1745      F1752   1.357       .  S
C1746      C1747   1.401       .  A
C1746      H1751   1.084       .  S
C1747      C1748   1.404       .  A
C1748      F1749   1.356       .  S
C1753      C1754   1.421       .  A
C1753      C1758   1.391       .  A
C1753      H1760   1.084       .  S
C1754      C1755   1.401       .  A
C1755      C1756   1.400       .  A
C1755      F1762   1.354       .  S
C1756      C1757   1.419       .  A
C1756      H1761   1.083       .  S
C1757      C1758   1.394       .  A
C1758      F1759   1.357       .  S
C1763      C1764   1.411       .  A
C1763      C1768   1.406       .  A
C1763      H1770   1.083       .  S
C1764      C1765   1.407       .  A
C1765      C1766   1.400       .  A
C1765      F1772   1.357       .  S
C1766      C1767   1.414       .  A
C1766      H1771   1.083       .  S
C1767      C1768   1.408       .  A
C1768      F1769   1.355       .  S
C1773      C1774   1.403       .  A
C1773      C1778   1.390       .  A
C1773      H1780   1.083       .  S
C1774      C1775   1.409       .  A
C1775      C1776   1.396       .  A
C1775      F1782   1.358       .  S
C1776      C1777   1.401       .  A
C1776      H1781   1.083       .  S
C1777      C1778   1.404       .  A
C1778      F1779   1.358       .  S
C1783      C1784   1.404       .  A
C1783      C1788   1.395       .  A
C1783      H1790   1.084       .  S
C1784      C1785   1.403       .  A
C1785      C1786   1.387       .  A
C1785      F1792   1.353       .  S
C1786      C1787   1.399       .  A
C1786      H1791   1.084       .  S
C1787      C1788   1.403       .  A
C1788      F1789   1.357       .  S
C1793      C1794   1.403       .  A
C1793      C1798   1.408       .  A
C1793      H1800   1.083       .  S
C1794      C1795   1.419       .  A
C1795      C1796   1.395       .  A
C1795      F1802   1.356       .  S
C1796      C1797   1.394       .  A
C1796      H1801   1.084       .  S
C1797      C1798   1.415       .  A
C1798      F1799   1.357       .  S
C1803      C1804   1.412       .  A
C1803      C1808   1.402       .  A
C1803      H1810   1.083       .  S
C1804      C1805   1.399       .  A
C1805      C1806   1.396       .  A
C1805      F1812   1.357       .  S
C1806      C1807   1.421       .  A
C1806      H1811   1.076       .  S
C1807      C1808   1.411       .  A
C1808      F1809   1.357       .  S
C1813      C1814   1.401       .  A
C1813      C1818   1.397       .  A
C1813      H1820   1.084       .  S
C1814      C1815   1.413       .  A
C1815      C1816   1.411       .  A
C1815      F1822   1.352       .  S
C1816      C1817   1.405       .  A
C1816      H1821   1.083       .  S
C1817      C1818   1.417       .  A
C1818      F1819   1.357       .  S
C1823      C1824   1.405       .  A
C1823      C1828   1.400       .  A
C1823      H1830   1.084       .  S
C1824      C1825   1.422       .  A
C1825      C1826   1.407       .  A
C1825      F1832   1.357       .  S
C1826      C1827   1.402       .  A
C1826      H1831   1.083       .  S
C1827      C1828   1.419       .  A
C1828      F1829   1.358       .  S
C1833      C1834   1.401       .  A
C1833      C1838   1.397       .  A
C1833      H1840   1.083       .  S
C1834      C1835   1.402       .  A
C1835      C1836   1.387       .  A
C1835      F1842   1.358       .  S
C1836      C1837   1.405       .  A
C1836      H1841   1.083       .  S
C1837      C1838   1.410       .  A
C1838      F1839   1.357       .  S
C1843      C1844   1.419       .  A
C1843      C1848   1.398       .  A
C1843      H1850   1.079       .  S
C1844      C1845   1.409       .  A
C1845      C1846   1.399       .  A
C1845      F1852   1.358       .  S
C1846      C1847   1.408       .  A
C1846      H1851   1.084       .  S
C1847      C1848   1.396       .  A
C1848      F1849   1.358       .  S
C1853      C1854   1.406       .  A
C1853      C1858   1.407       .  A
C1853      H1860   1.083       .  S
C1854      C1855   1.403       .  A
C1855      C1856   1.396       .  A
C1855      F1862   1.358       .  S
C1856      C1857   1.412       .  A
C1856      H1861   1.083       .  S
C1857      C1858   1.410       .  A
C1858      F1859   1.355       .  S
C1863      C1864   1.405       .  A
C1863      C1868   1.390       .  A
C1863      H1870   1.083       .  S
C1864      C1865   1.398       .  A
C1865      C1866   1.395       .  A
C1865      F1872   1.357       .  S
C1866      C1867   1.406       .  A
C1866      H1871   1.083       .  S
C1867      C1868   1.399       .  A
C1868      F1869   1.358       .  S
C1873      C1874   1.409       .  A
C1873      C1878   1.406       .  A
C1873      H1880   1.083       .  S
C1874      C1875   1.410       .  A
C1875      C1876   1.385       .  A
C1875      F1882   1.358       .  S
C1876      C1877   1.401       .  A
C1876      H1881   1.084       .  S
C1877      C1878   1.409       .  A
C1878      F1879   1.357       .  S
C1883      C1884   1.410       .  A
C1883      C1888   1.416       .  A
C1883      H1890   1.083       .  S
C1884      C1885   1.404       .  A
C1885      C1886   1.394       .  A
C1885      F1892   1.359       .  S
C1886      C1887   1.412       .  A
C1886      H1891   1.083       .  S
C1887      C1888   1.413       .  A
C1888      F1889   1.355       .  S
C1893      C1894   1.417       .  A
C1893      C1898   1.405       .  A
C1893      H1900   1.083       .  S
C1894      C1895   1.396       .  A
C1895      C1896   1.391       .  A
C1895      F1902   1.358       .  S
C1896      C1897   1.420       .  A
C1896      H1901   1.084       .  S
C1897      C1898   1.403       .  A
C1898      F1899   1.354       .  S
C1903      C1904   1.399       .  A
C1903      C1908   1.398       .  A
C1903      H1910   1.084       .  S
C1904      C1905   1.409       .  A
C1905      C1906   1.387       .  A
C1905      F1912   1.357       .  S
C1906      C1907   1.393       .  A
C1906      H1911   1.084       .  S
C1907      C1908   1.407       .  A
C1908      F1909   1.358       .  S
C1913      C1914   1.406       .  A
C1913      C1918   1.406       .  A
C1913      H1920   1.080       .  S
C1914      C1915   1.414       .  A
C1915      C1916   1.400       .  A
C1915      F1922   1.358       .  S
C1916      C1917   1.405       .  A
C1916      H1921   1.083       .  S
C1917      C1918   1.411       .  A
C1918      F1919   1.357       .  S
C1923      C1924   1.428       .  A
C1923      C1928   1.400       .  A
C1923      H1930   1.080       .  S
C1924      C1925   1.404       .  A
C1925      C1926   1.396       .  A
C1925      F1932   1.356   1_556  S
C1926      C1927   1.416       .  A
C1926      H1931   1.083   1_556  S
C1927      C1928   1.394       .  A
C1928      F1929   1.357       .  S
C1933      C1934   1.421       .  A
C1933      C1938   1.405       .  A
C1933      H1940   1.083       .  S
C1934      C1935   1.396       .  A
C1935      C1936   1.403       .  A
C1935      F1942   1.357       .  S
C1936      C1937   1.413       .  A
C1936      H1941   1.079       .  S
C1937      C1938   1.398       .  A
C1938      F1939   1.357       .  S
C1943      C1944   1.405       .  A
C1943      C1948   1.395       .  A
C1943      H1950   1.083       .  S
C1944      C1945   1.406       .  A
C1945      C1946   1.402       .  A
C1945      F1952   1.356       .  S
C1946      C1947   1.406       .  A
C1946      H1951   1.083       .  S
C1947      C1948   1.404       .  A
C1948      F1949   1.357       .  S
C1953      C1954   1.427       .  A
C1953      C1958   1.396       .  A
C1953      H1960   1.078       .  S
C1954      C1955   1.404       .  A
C1955      C1956   1.401       .  A
C1955      F1962   1.356       .  S
C1956      C1957   1.415       .  A
C1956      H1961   1.083       .  S
C1957      C1958   1.393       .  A
C1958      F1959   1.358       .  S
C1963      C1964   1.428       .  A
C1963      C1968   1.397       .  A
C1963      H1970   1.080       .  S
C1964      C1965   1.406       .  A
C1965      C1966   1.405       .  A
C1965      F1972   1.356       .  S
C1966      C1967   1.415       .  A
C1966      H1971   1.083       .  S
C1967      C1968   1.395       .  A
C1968      F1969   1.358       .  S
C1973      C1974   1.424       .  A
C1973      C1978   1.398       .  A
C1973      H1980   1.083       .  S
C1974      C1975   1.401       .  A
C1975      C1976   1.405       .  A
C1975      F1982   1.355   1_554  S
C1976      C1977   1.421       .  A
C1976      H1981   1.083   1_554  S
C1977      C1978   1.395       .  A
C1978      F1979   1.357       .  S
C1983      C1984   1.419       .  A
C1983      C1988   1.403       .  A
C1983      H1990   1.083   1_455  S
C1984      C1985   1.399       .  A
C1985      C1986   1.400       .  A
C1985      F1992   1.357       .  S
C1986      C1987   1.423       .  A
C1986      H1991   1.084       .  S
C1987      C1988   1.402       .  A
C1988      F1989   1.354   1_455  S
C1993      C1994   1.400       .  A
C1993      C1998   1.398       .  A
C1993      H2000   1.084       .  S
C1994      C1995   1.406       .  A
C1995      C1996   1.383       .  A
C1995      F2002   1.356       .  S
C1996      C1997   1.396       .  A
C1996      H2001   1.084       .  S
C1997      C1998   1.407       .  A
C1998      F1999   1.356       .  S
C2003      C2004   1.428       .  A
C2003      C2008   1.403       .  A
C2003      H2010   1.081       .  S
C2004      C2005   1.404       .  A
C2005      C2006   1.402       .  A
C2005      F2012   1.355   1_655  S
C2006      C2007   1.417       .  A
C2006      H2011   1.083   1_655  S
C2007      C2008   1.398       .  A
C2008      F2009   1.358       .  S
C2013      C2014   1.418       .  A
C2013      C2018   1.394       .  A
C2013      H2020   1.079       .  S
C2014      C2015   1.412       .  A
C2015      C2016   1.405       .  A
C2015      F2022   1.354       .  S
C2016      C2017   1.406       .  A
C2016      H2021   1.084       .  S
C2017      C2018   1.396       .  A
C2018      F2019   1.359       .  S
C2023      C2024   1.402       .  A
C2023      C2028   1.406       .  A
C2023      H2030   1.081       .  S
C2024      C2025   1.427       .  A
C2025      C2026   1.392       .  A
C2025      F2032   1.358       .  S
C2026      C2027   1.390       .  A
C2026      H2031   1.084       .  S
C2027      C2028   1.416       .  A
C2028      F2029   1.358       .  S
C2033      C2034   1.416       .  A
C2033      C2038   1.400       .  A
C2033      H2040   1.083       .  S
C2034      C2035   1.393       .  A
C2035      C2036   1.397       .  A
C2035      F2042   1.358       .  S
C2036      C2037   1.427       .  A
C2036      H2041   1.080       .  S
C2037      C2038   1.403       .  A
C2038      F2039   1.356       .  S
C2043      C2044   1.422       .  A
C2043      C2048   1.394       .  A
C2043      H2050   1.084       .  S
C2044      C2045   1.402       .  A
C2045      C2046   1.404   1_455  A
C2045      F2052   1.354   1_455  S
C2046      C2047   1.419   1_655  A
C2046      H2051   1.083       .  S
C2047      C2048   1.396       .  A
C2048      F2049   1.357       .  S
C2053      C2054   1.410       .  A
C2053      C2058   1.394       .  A
C2053      H2060   1.083       .  S
C2054      C2055   1.411       .  A
C2055      C2056   1.414       .  A
C2055      F2062   1.356       .  S
C2056      C2057   1.410       .  A
C2056      H2061   1.081       .  S
C2057      C2058   1.408       .  A
C2058      F2059   1.359       .  S
C2063      C2064   1.400       .  A
C2063      C2068   1.392       .  A
C2063      H2070   1.083       .  S
C2064      C2065   1.403       .  A
C2065      C2066   1.392       .  A
C2065      F2072   1.358       .  S
C2066      C2067   1.400       .  A
C2066      H2071   1.076       .  S
C2067      C2068   1.406       .  A
C2068      F2069   1.358       .  S
C2073      C2074   1.418       .  A
C2073      C2078   1.404       .  A
C2073      H2080   1.083       .  S
C2074      C2075   1.396       .  A
C2075      C2076   1.393       .  A
C2075      F2082   1.357       .  S
C2076      C2077   1.422       .  A
C2076      H2081   1.083       .  S
C2077      C2078   1.402       .  A
C2078      F2079   1.354       .  S
C2083      C2084   1.412       .  A
C2083      C2088   1.408       .  A
C2083      H2090   1.083       .  S
C2084      C2085   1.409       .  A
C2085      C2086   1.397       .  A
C2085      F2092   1.357       .  S
C2086      C2087   1.408       .  A
C2086      H2091   1.083       .  S
C2087      C2088   1.408       .  A
C2088      F2089   1.355       .  S
C2093      C2094   1.411       .  A
C2093      C2098   1.395       .  A
C2093      H2100   1.083       .  S
C2094      C2095   1.411       .  A
C2095      C2096   1.414       .  A
C2095      F2102   1.356       .  S
C2096      C2097   1.410       .  A
C2096      H2101   1.081       .  S
C2097      C2098   1.407       .  A
C2098      F2099   1.358       .  S
C2103      C2104   1.402       .  A
C2103      C2108   1.394       .  A
C2103      H2110   1.083       .  S
C2104      C2105   1.410       .  A
C2105      C2106   1.400       .  A
C2105      F2112   1.357       .  S
C2106      C2107   1.400       .  A
C2106      H2111   1.081       .  S
C2107      C2108   1.409       .  A
C2108      F2109   1.358       .  S
C2113      C2114   1.401       .  A
C2113      C2118   1.392       .  A
C2113      H2120   1.082       .  S
C2114      C2115   1.399       .  A
C2115      C2116   1.389       .  A
C2115      F2122   1.358       .  S
C2116      C2117   1.402       .  A
C2116      H2121   1.077       .  S
C2117      C2118   1.402       .  A
C2118      F2119   1.358       .  S
C2123      C2124   1.398       .  A
C2123      C2128   1.394       .  A
C2123      H2130   1.084       .  S
C2124      C2125   1.415       .  A
C2125      C2126   1.407       .  A
C2125      F2132   1.354       .  S
C2126      C2127   1.403       .  A
C2126      H2131   1.083       .  S
C2127      C2128   1.415       .  A
C2128      F2129   1.356   1_565  S
C2133      C2134   1.406       .  A
C2133      C2138   1.393       .  A
C2133      H2140   1.084       .  S
C2134      C2135   1.404       .  A
C2135      C2136   1.399       .  A
C2135      F2142   1.356       .  S
C2136      C2137   1.406       .  A
C2136      H2141   1.083       .  S
C2137      C2138   1.404       .  A
C2138      F2139   1.357       .  S
C2143      C2144   1.406       .  A
C2143      C2148   1.388       .  A
C2143      H2150   1.083       .  S
C2144      C2145   1.407       .  A
C2145      C2146   1.399       .  A
C2145      F2152   1.355       .  S
C2146      C2147   1.407       .  A
C2146      H2151   1.083       .  S
C2147      C2148   1.406       .  A
C2148      F2149   1.358       .  S
C2153      C2154   1.422       .  A
C2153      C2158   1.406       .  A
C2153      H2160   1.074       .  S
C2154      C2155   1.406       .  A
C2155      C2156   1.399       .  A
C2155      F2162   1.358       .  S
C2156      C2157   1.415       .  A
C2156      H2161   1.083       .  S
C2157      C2158   1.401       .  A
C2158      F2159   1.357       .  S
C2163      C2164   1.423       .  A
C2163      C2168   1.391       .  A
C2163      H2170   1.084       .  S
C2164      C2165   1.399       .  A
C2165      C2166   1.403       .  A
C2165      F2172   1.354   1_545  S
C2166      C2167   1.420       .  A
C2166      H2171   1.083   1_545  S
C2167      C2168   1.394       .  A
C2168      F2169   1.358       .  S
C2173      C2174   1.414       .  A
C2173      C2178   1.398       .  A
C2173      H2180   1.082       .  S
C2174      C2175   1.409       .  A
C2175      C2176   1.409       .  A
C2175      F2182   1.355       .  S
C2176      C2177   1.413       .  A
C2176      H2181   1.083       .  S
C2177      C2178   1.406       .  A
C2178      F2179   1.357       .  S
C2183      C2184   1.397   1_545  A
C2183      C2188   1.405       .  A
C2183      H2190   1.082       .  S
C2184      C2185   1.426       .  A
C2185      C2186   1.390       .  A
C2185      F2192   1.359       .  S
C2186      C2187   1.391       .  A
C2186      H2191   1.083       .  S
C2187      C2188   1.425   1_565  A
C2188      F2189   1.358       .  S
C2193      C2194   1.425       .  A
C2193      C2198   1.398       .  A
C2193      H2200   1.084       .  S
C2194      C2195   1.408       .  A
C2195      C2196   1.402       .  A
C2195      F2202   1.356       .  S
C2196      C2197   1.414       .  A
C2196      H2201   1.086       .  S
C2197      C2198   1.396       .  A
C2198      F2199   1.357       .  S
C2203      C2204   1.406       .  A
C2203      C2208   1.408       .  A
C2203      H2210   1.082   1_655  S
C2204      C2205   1.426       .  A
C2205      C2206   1.390       .  A
C2205      F2212   1.357       .  S
C2206      C2207   1.393       .  A
C2206      H2211   1.083       .  S
C2207      C2208   1.417       .  A
C2208      F2209   1.357   1_655  S
C2213      C2214   1.416       .  A
C2213      C2218   1.402       .  A
C2213      H2220   1.081       .  S
C2214      C2215   1.410       .  A
C2215      C2216   1.400       .  A
C2215      F2222   1.358       .  S
C2216      C2217   1.411       .  A
C2216      H2221   1.083       .  S
C2217      C2218   1.404       .  A
C2218      F2219   1.357       .  S
C2223      C2224   1.395       .  A
C2223      C2228   1.404       .  A
C2223      H2230   1.082       .  S
C2224      C2225   1.427       .  A
C2225      C2226   1.392       .  A
C2225      F2232   1.359       .  S
C2226      C2227   1.392       .  A
C2226      H2231   1.083       .  S
C2227      C2228   1.426       .  A
C2228      F2229   1.357       .  S
C2233      C2234   1.409       .  A
C2233      C2238   1.412       .  A
C2233      H2240   1.083       .  S
C2234      C2235   1.401       .  A
C2235      C2236   1.392       .  A
C2235      F2242   1.359       .  S
C2236      C2237   1.411       .  A
C2236      H2241   1.083       .  S
C2237      C2238   1.410       .  A
C2238      F2239   1.354       .  S
C2243      C2244   1.407       .  A
C2243      C2248   1.402       .  A
C2243      H2250   1.083       .  S
C2244      C2245   1.406       .  A
C2245      C2246   1.402       .  A
C2245      F2252   1.357       .  S
C2246      C2247   1.416       .  A
C2246      H2251   1.081       .  S
C2247      C2248   1.413       .  A
C2248      F2249   1.354       .  S
C2253      C2254   1.407       .  A
C2253      C2258   1.395       .  A
C2253      H2260   1.082       .  S
C2254      C2255   1.408       .  A
C2255      C2256   1.391       .  A
C2255      F2262   1.358       .  S
C2256      C2257   1.400       .  A
C2256      H2261   1.080       .  S
C2257      C2258   1.401       .  A
C2258      F2259   1.358       .  S
C2263      C2264   1.398       .  A
C2263      C2268   1.398       .  A
C2263      H2270   1.083       .  S
C2264      C2265   1.409       .  A
C2265      C2266   1.389       .  A
C2265      F2272   1.358       .  S
C2266      C2267   1.395       .  A
C2266      H2271   1.084       .  S
C2267      C2268   1.406       .  A
C2268      F2269   1.357       .  S
C2273      C2274   1.410   1_545  A
C2273      C2278   1.402       .  A
C2273      H2280   1.083       .  S
C2274      C2275   1.401       .  A
C2275      C2276   1.399       .  A
C2275      F2282   1.358       .  S
C2276      C2277   1.417       .  A
C2276      H2281   1.078       .  S
C2277      C2278   1.411   1_565  A
C2278      F2279   1.357       .  S
C2283      C2284   1.420       .  A
C2283      C2288   1.404       .  A
C2283      H2290   1.083   1_545  S
C2284      C2285   1.396       .  A
C2285      C2286   1.396       .  A
C2285      F2292   1.357       .  S
C2286      C2287   1.423       .  A
C2286      H2291   1.084       .  S
C2287      C2288   1.402       .  A
C2288      F2289   1.354   1_545  S
C2293      C2294   1.395       .  A
C2293      C2298   1.401       .  A
C2293      H2300   1.083       .  S
C2294      C2295   1.414       .  A
C2295      C2296   1.401       .  A
C2295      F2302   1.357       .  S
C2296      C2297   1.394       .  A
C2296      H2301   1.083       .  S
C2297      C2298   1.421       .  A
C2298      F2299   1.357       .  S
C2303      C2304   1.410       .  A
C2303      C2308   1.405       .  A
C2303      H2310   1.083       .  S
C2304      C2305   1.407       .  A
C2305      C2306   1.403       .  A
C2305      F2312   1.357       .  S
C2306      C2307   1.417       .  A
C2306      H2311   1.082       .  S
C2307      C2308   1.411       .  A
C2308      F2309   1.354       .  S
C2313      C2314   1.400       .  A
C2313      C2318   1.400       .  A
C2313      H2320   1.083       .  S
C2314      C2315   1.412       .  A
C2315      C2316   1.391       .  A
C2315      F2322   1.359       .  S
C2316      C2317   1.395       .  A
C2316      H2321   1.084       .  S
C2317      C2318   1.405       .  A
C2318      F2319   1.355       .  S
C2323      C2324   1.408       .  A
C2323      C2328   1.397       .  A
C2323      H2330   1.083       .  S
C2324      C2325   1.402       .  A
C2325      C2326   1.393       .  A
C2325      F2332   1.356       .  S
C2326      C2327   1.406       .  A
C2326      H2331   1.083       .  S
C2327      C2328   1.405       .  A
C2328      F2329   1.357       .  S
C2333      C2334   1.414       .  A
C2333      C2338   1.399       .  A
C2333      H2340   1.083       .  S
C2334      C2335   1.401       .  A
C2335      C2336   1.404       .  A
C2335      F2342   1.357       .  S
C2336      C2337   1.420       .  A
C2336      H2341   1.079       .  S
C2337      C2338   1.408       .  A
C2338      F2339   1.358       .  S
C2343      C2344   1.393       .  A
C2343      C2348   1.391       .  A
C2343      H2350   1.083       .  S
C2344      C2345   1.418       .  A
C2345      C2346   1.403       .  A
C2345      F2352   1.358   1_655  S
C2346      C2347   1.401       .  A
C2346      H2351   1.081   1_655  S
C2347      C2348   1.421       .  A
C2348      F2349   1.359       .  S
C2353      C2354   1.403       .  A
C2353      C2358   1.402       .  A
C2353      H2360   1.083       .  S
C2354      C2355   1.415       .  A
C2355      C2356   1.400       .  A
C2355      F2362   1.354       .  S
C2356      C2357   1.399       .  A
C2356      H2361   1.083       .  S
C2357      C2358   1.408       .  A
C2358      F2359   1.357       .  S
C2363      C2364   1.405       .  A
C2363      C2368   1.403       .  A
C2363      H2370   1.084       .  S
C2364      C2365   1.400       .  A
C2365      C2366   1.391       .  A
C2365      F2372   1.359       .  S
C2366      C2367   1.411       .  A
C2366      H2371   1.083       .  S
C2367      C2368   1.408       .  A
C2368      F2369   1.355       .  S
C2373      C2374   1.403       .  A
C2373      C2378   1.398       .  A
C2373      H2380   1.083       .  S
C2374      C2375   1.404       .  A
C2375      C2376   1.395       .  A
C2375      F2382   1.357       .  S
C2376      C2377   1.405       .  A
C2376      H2381   1.083       .  S
C2377      C2378   1.406       .  A
C2378      F2379   1.355       .  S
C2383      C2384   1.396       .  A
C2383      C2388   1.387       .  A
C2383      H2390   1.084       .  S
C2384      C2385   1.408       .  A
C2385      C2386   1.400       .  A
C2385      F2392   1.356       .  S
C2386      C2387   1.400       .  A
C2386      H2391   1.084       .  S
C2387      C2388   1.408       .  A
C2388      F2389   1.358       .  S
C2393      C2394   1.412       .  A
C2393      C2398   1.401       .  A
C2393      H2400   1.083       .  S
C2394      C2395   1.403       .  A
C2395      C2396   1.401       .  A
C2395      F2402   1.357       .  S
C2396      C2397   1.416       .  A
C2396      H2401   1.078       .  S
C2397      C2398   1.410       .  A
C2398      F2399   1.358       .  S
C2403      C2404   1.419       .  A
C2403      C2408   1.403       .  A
C2403      H2410   1.083       .  S
C2404      C2405   1.396       .  A
C2405      C2406   1.398       .  A
C2405      F2412   1.357       .  S
C2406      C2407   1.424       .  A
C2406      H2411   1.083       .  S
C2407      C2408   1.402       .  A
C2408      F2409   1.355       .  S
C2413      C2414   1.416       .  A
C2413      C2418   1.395       .  A
C2413      H2420   1.080       .  S
C2414      C2415   1.398       .  A
C2415      C2416   1.405       .  A
C2415      F2422   1.357       .  S
C2416      C2417   1.421       .  A
C2416      H2421   1.083       .  S
C2417      C2418   1.392       .  A
C2418      F2419   1.357       .  S
C2423      C2424   1.403       .  A
C2423      C2428   1.405       .  A
C2423      H2430   1.083       .  S
C2424      C2425   1.417       .  A
C2425      C2426   1.397       .  A
C2425      F2432   1.353       .  S
C2426      C2427   1.396       .  A
C2426      H2431   1.083       .  S
C2427      C2428   1.410       .  A
C2428      F2429   1.357       .  S
C2433      C2434   1.404       .  A
C2433      C2438   1.392       .  A
C2433      H2440   1.081       .  S
C2434      C2435   1.401       .  A
C2435      C2436   1.399       .  A
C2435      F2442   1.358       .  S
C2436      C2437   1.407       .  A
C2436      H2441   1.082       .  S
C2437      C2438   1.402       .  A
C2438      F2439   1.358       .  S
C2443      C2444   1.401       .  A
C2443      C2448   1.401       .  A
C2443      H2450   1.083       .  S
C2444      C2445   1.403       .  A
C2445      C2446   1.386       .  A
C2445      F2452   1.358       .  S
C2446      C2447   1.404       .  A
C2446      H2451   1.083       .  S
C2447      C2448   1.411       .  A
C2448      F2449   1.357       .  S
C2453      C2454   1.421       .  A
C2453      C2458   1.391       .  A
C2453      H2460   1.084       .  S
C2454      C2455   1.401       .  A
C2455      C2456   1.401       .  A
C2455      F2462   1.354       .  S
C2456      C2457   1.418       .  A
C2456      H2461   1.083       .  S
C2457      C2458   1.394       .  A
C2458      F2459   1.357       .  S
C2463      C2464   1.403       .  A
C2463      C2468   1.405       .  A
C2463      H2470   1.082       .  S
C2464      C2465   1.433       .  A
C2465      C2466   1.397       .  A
C2465      F2472   1.357       .  S
C2466      C2467   1.391       .  A
C2466      H2471   1.083       .  S
C2467      C2468   1.418       .  A
C2468      F2469   1.357       .  S
C2473      C2474   1.409       .  A
C2473      C2478   1.396       .  A
C2473      H2480   1.083       .  S
C2474      C2475   1.408       .  A
C2475      C2476   1.406       .  A
C2475      F2482   1.355       .  S
C2476      C2477   1.410       .  A
C2476      H2481   1.083       .  S
C2477      C2478   1.407       .  A
C2478      F2479   1.357       .  S
C2483      C2484   1.412       .  A
C2483      C2488   1.412       .  A
C2483      H2490   1.076       .  S
C2484      C2485   1.402       .  A
C2485      C2486   1.395       .  A
C2485      F2492   1.358       .  S
C2486      C2487   1.411       .  A
C2486      H2491   1.082       .  S
C2487      C2488   1.407       .  A
C2488      F2489   1.357       .  S
C2493      C2494   1.402       .  A
C2493      C2498   1.388       .  A
C2493      H2500   1.083       .  S
C2494      C2495   1.402       .  A
C2495      C2496   1.403       .  A
C2495      F2502   1.357       .  S
C2496      C2497   1.409       .  A
C2496      H2501   1.082       .  S
C2497      C2498   1.408       .  A
C2498      F2499   1.358       .  S
C2503      C2504   1.404       .  A
C2503      C2508   1.390       .  A
C2503      H2510   1.083       .  S
C2504      C2505   1.409       .  A
C2505      C2506   1.393       .  A
C2505      F2512   1.357       .  S
C2506      C2507   1.398       .  A
C2506      H2511   1.083       .  S
C2507      C2508   1.405       .  A
C2508      F2509   1.358       .  S
C2513      C2514   1.403       .  A
C2513      C2518   1.403       .  A
C2513      H2520   1.083       .  S
C2514      C2515   1.416       .  A
C2515      C2516   1.401       .  A
C2515      F2522   1.358       .  S
C2516      C2517   1.408       .  A
C2516      H2521   1.084       .  S
C2517      C2518   1.418       .  A
C2518      F2519   1.357       .  S
C2523      C2524   1.394       .  A
C2523      C2528   1.398       .  A
C2523      H2530   1.083       .  S
C2524      C2525   1.426       .  A
C2525      C2526   1.398       .  A
C2525      F2532   1.358       .  S
C2526      C2527   1.394       .  A
C2526      H2531   1.081       .  S
C2527      C2528   1.426       .  A
C2528      F2529   1.359       .  S
C2533      C2534   1.407       .  A
C2533      C2538   1.413       .  A
C2533      H2540   1.083       .  S
C2534      C2535   1.406       .  A
C2535      C2536   1.393       .  A
C2535      F2542   1.359       .  S
C2536      C2537   1.406       .  A
C2536      H2541   1.083       .  S
C2537      C2538   1.414       .  A
C2538      F2539   1.355       .  S
C2543      C2544   1.408       .  A
C2543      C2548   1.409       .  A
C2543      H2550   1.084       .  S
C2544      C2545   1.401       .  A
C2545      C2546   1.394       .  A
C2545      F2552   1.358       .  S
C2546      C2547   1.405       .  A
C2546      H2551   1.073       .  S
C2547      C2548   1.415       .  A
C2548      F2549   1.357       .  S
C2553      C2554   1.402       .  A
C2553      C2558   1.397       .  A
C2553      H2560   1.083       .  S
C2554      C2555   1.402       .  A
C2555      C2556   1.395       .  A
C2555      F2562   1.355       .  S
C2556      C2557   1.404       .  A
C2556      H2561   1.083       .  S
C2557      C2558   1.409       .  A
C2558      F2559   1.357       .  S
C2563      C2564   1.400       .  A
C2563      C2568   1.393       .  A
C2563      H2570   1.076       .  S
C2564      C2565   1.403       .  A
C2565      C2566   1.389       .  A
C2565      F2572   1.358       .  S
C2566      C2567   1.405       .  A
C2566      H2571   1.083       .  S
C2567      C2568   1.407       .  A
C2568      F2569   1.357       .  S
C2573      C2574   1.392       .  A
C2573      C2578   1.391       .  A
C2573      H2580   1.083       .  S
C2574      C2575   1.423       .  A
C2575      C2576   1.401       .  A
C2575      F2582   1.358       .  S
C2576      C2577   1.396       .  A
C2576      H2581   1.081       .  S
C2577      C2578   1.424       .  A
C2578      F2579   1.359       .  S
C2583      C2584   1.410       .  A
C2583      C2588   1.398       .  A
C2583      H2590   1.083       .  S
C2584      C2585   1.402       .  A
C2585      C2586   1.398       .  A
C2585      F2592   1.358       .  S
C2586      C2587   1.417       .  A
C2586      H2591   1.075       .  S
C2587      C2588   1.410       .  A
C2588      F2589   1.358       .  S
C2593      C2594   1.404       .  A
C2593      C2598   1.409       .  A
C2593      H2600   1.083       .  S
C2594      C2595   1.416       .  A
C2595      C2596   1.396       .  A
C2595      F2602   1.357       .  S
C2596      C2597   1.399       .  A
C2596      H2601   1.084       .  S
C2597      C2598   1.415       .  A
C2598      F2599   1.355       .  S
C2603      C2604   1.407       .  A
C2603      C2608   1.400       .  A
C2603      H2610   1.083       .  S
C2604      C2605   1.410       .  A
C2605      C2606   1.406       .  A
C2605      F2612   1.357       .  S
C2606      C2607   1.407       .  A
C2606      H2611   1.080       .  S
C2607      C2608   1.413       .  A
C2608      F2609   1.358       .  S
C2613      C2614   1.399       .  A
C2613      C2618   1.386       .  A
C2613      H2620   1.076       .  S
C2614      C2615   1.402       .  A
C2615      C2616   1.395       .  A
C2615      F2622   1.358       .  S
C2616      C2617   1.407       .  A
C2616      H2621   1.082       .  S
C2617      C2618   1.405       .  A
C2618      F2619   1.358       .  S
C2623      C2624   1.406       .  A
C2623      C2628   1.398       .  A
C2623      H2630   1.083       .  S
C2624      C2625   1.406       .  A
C2625      C2626   1.387       .  A
C2625      F2632   1.358       .  S
C2626      C2627   1.405       .  A
C2626      H2631   1.083       .  S
C2627      C2628   1.408       .  A
C2628      F2629   1.356       .  S
C2633      C2634   1.414       .  A
C2633      C2638   1.402       .  A
C2633      H2640   1.083   1_554  S
C2634      C2635   1.395       .  A
C2635      C2636   1.394       .  A
C2635      F2642   1.358       .  S
C2636      C2637   1.424       .  A
C2636      H2641   1.079       .  S
C2637      C2638   1.407       .  A
C2638      F2639   1.356   1_554  S
C2643      C2644   1.392       .  A
C2643      C2648   1.393       .  A
C2643      H2650   1.083       .  S
C2644      C2645   1.423       .  A
C2645      C2646   1.408       .  A
C2645      F2652   1.358   1_556  S
C2646      C2647   1.399       .  A
C2646      H2651   1.082   1_556  S
C2647      C2648   1.426       .  A
C2648      F2649   1.359       .  S
C2653      C2654   1.404       .  A
C2653      C2658   1.398       .  A
C2653      H2660   1.083       .  S
C2654      C2655   1.410       .  A
C2655      C2656   1.405       .  A
C2655      F2662   1.357       .  S
C2656      C2657   1.405       .  A
C2656      H2661   1.081       .  S
C2657      C2658   1.415       .  A
C2658      F2659   1.358       .  S
C2663      C2664   1.402       .  A
C2663      C2668   1.392       .  A
C2663      H2670   1.084       .  S
C2664      C2665   1.410       .  A
C2665      C2666   1.414       .  A
C2665      F2672   1.354       .  S
C2666      C2667   1.410       .  A
C2666      H2671   1.083       .  S
C2667      C2668   1.416       .  A
C2668      F2669   1.357       .  S
C2673      C2674   1.398       .  A
C2673      C2678   1.391       .  A
C2673      H2680   1.080       .  S
C2674      C2675   1.404       .  A
C2675      C2676   1.397       .  A
C2675      F2682   1.357       .  S
C2676      C2677   1.406       .  A
C2676      H2681   1.083   1_556  S
C2677      C2678   1.409       .  A
C2678      F2679   1.358       .  S
C2683      C2684   1.403       .  A
C2683      C2688   1.397       .  A
C2683      H2690   1.082       .  S
C2684      C2685   1.399       .  A
C2685      C2686   1.389       .  A
C2685      F2692   1.358       .  S
C2686      C2687   1.403       .  A
C2686      H2691   1.082       .  S
C2687      C2688   1.401       .  A
C2688      F2689   1.357       .  S
C2693      C2694   1.421       .  A
C2693      C2698   1.403       .  A
C2693      H2700   1.083       .  S
C2694      C2695   1.396       .  A
C2695      C2696   1.395       .  A
C2695      F2702   1.357       .  S
C2696      C2697   1.423       .  A
C2696      H2701   1.084       .  S
C2697      C2698   1.400       .  A
C2698      F2699   1.354       .  S
C2703      C2704   1.389       .  A
C2703      C2708   1.391       .  A
C2703      H2710   1.084       .  S
C2704      C2705   1.417       .  A
C2705      C2706   1.407       .  A
C2705      F2712   1.358       .  S
C2706      C2707   1.402       .  A
C2706      H2711   1.081       .  S
C2707      C2708   1.425       .  A
C2708      F2709   1.359       .  S
C2713      C2714   1.410       .  A
C2713      C2718   1.396       .  A
C2713      H2720   1.083       .  S
C2714      C2715   1.412       .  A
C2715      C2716   1.414       .  A
C2715      F2722   1.357       .  S
C2716      C2717   1.408       .  A
C2716      H2721   1.079       .  S
C2717      C2718   1.405       .  A
C2718      F2719   1.358       .  S
C2723      C2724   1.408       .  A
C2723      C2728   1.408       .  A
C2723      H2730   1.083       .  S
C2724      C2725   1.409       .  A
C2725      C2726   1.400       .  A
C2725      F2732   1.357       .  S
C2726      C2727   1.413       .  A
C2726      H2731   1.081       .  S
C2727      C2728   1.415       .  A
C2728      F2729   1.354       .  S
C2733      C2734   1.396       .  A
C2733      C2738   1.392       .  A
C2733      H2740   1.084       .  S
C2734      C2735   1.404       .  A
C2735      C2736   1.399       .  A
C2735      F2742   1.355       .  S
C2736      C2737   1.401       .  A
C2736      H2741   1.084       .  S
C2737      C2738   1.410       .  A
C2738      F2739   1.356       .  S
C2743      C2744   1.408       .  A
C2743      C2748   1.398       .  A
C2743      H2750   1.083       .  S
C2744      C2745   1.406       .  A
C2745      C2746   1.396       .  A
C2745      F2752   1.357       .  S
C2746      C2747   1.407       .  A
C2746      H2751   1.084       .  S
C2747      C2748   1.401       .  A
C2748      F2749   1.356       .  S
