geometry optimzed in LAMMPS
_audit_creation_date              2020-11-30 
_audit_creation_method            'lammps2cif' 
_symmetry_space_group_name_H-M    'P1' 
_symmetry_Int_Tables_number       1 
_symmetry_cell_setting            triclinic 
loop_ 
_symmetry_equiv_pos_as_xyz 
  x,y,z 
_cell_length_a                    34.08984612706716 
_cell_length_b                    35.32582661168174 
_cell_length_c                    31.227454298688674 
_cell_angle_alpha                 89.79434927827565 
_cell_angle_beta                  90.11131780158007 
_cell_angle_gamma                 90.26246271315637 
loop_ 
_atom_site_label 
_atom_site_type_symbol 
_atom_site_fract_x 
_atom_site_fract_y 
_atom_site_fract_z 
_atom_site_charge 
In1        In  0.90597085  0.06826162  0.50552709     1.36870
C2          C  0.94796264  0.02395697  0.45508218     0.77210
O3          O  0.90649629  0.11363183  0.45583993    -0.61230
O4          O  0.94105780  0.12217878  0.51187530    -0.52150
C5          C  0.82844280  0.07623499  0.50708719     0.69880
O6          O  0.84671503  0.05903552  0.47813211    -0.47000
C7          C  0.92873986  0.02894321  0.07384288     0.74580
O8          O  0.91110765  0.02118890  0.45767626    -0.58860
O9          O  0.93183325  0.06463976  0.07242838    -0.48950
O10         O  0.96225510  0.05169447  0.47511226    -0.55290
C11         C  0.93137910  0.13383485  0.47505818     0.84760
O12         O  0.85010303  0.08887004  0.03674987    -0.57190
O13         O  0.91022540  0.01451492  0.04303300    -0.60480
In14       In  0.58121363  0.06909683  0.50068952     1.36870
C15         C  0.54164093  0.02386542  0.44820943     0.77210
O16         O  0.57551376  0.01547413  0.03824105    -0.61230
O17         O  0.55428245  0.06590458  0.06684160    -0.52150
C18         C  0.65858354  0.07809939  0.50653242     0.69880
O19         O  0.64157983  0.06282360  0.47508602    -0.47000
C20         C  0.55476175  0.13430389  0.47094629     0.74580
O21         O  0.57827860  0.02100175  0.45356163    -0.58860
O22         O  0.54363449  0.12092597  0.50646770    -0.48950
O23         O  0.52665917  0.05183355  0.46668646    -0.55290
C24         C  0.55696934  0.03023337  0.06865741     0.84760
O25         O  0.63560912  0.08904073  0.03561930    -0.57230
O26         O  0.58174826  0.11617873  0.45284272    -0.60480
In27       In  0.49066177  0.46401417  0.15107886     1.36870
C28         C  0.44638916  0.41895484  0.10164253     0.77210
O29         O  0.51834318  0.02028790  0.13199279    -0.61230
O30         O  0.53329424  0.47156795  0.09670143    -0.52150
C31         C  0.44883775  0.01153146  0.19762457     0.69880
O32         O  0.43593855  0.49722310  0.16341234    -0.47000
C33         C  0.53169482  0.41782500  0.20038497     0.74580
O34         O  0.44760090  0.45436887  0.09739926    -0.58860
O35         O  0.54609067  0.43370138  0.16771370    -0.48950
O36         O  0.46573700  0.40651662  0.13289134    -0.55290
C37         C  0.53662068  0.00685499  0.10065907     0.84760
O38         O  0.48194820  0.99962608  0.20948695    -0.57190
O39         O  0.49722463  0.42767313  0.20965092    -0.60480
In40       In  0.08292545  0.35362868  0.00895693     1.36870
C41         C  0.04860142  0.40240094  0.45636527     0.77210
O42         O  0.08265851  0.30597421  0.46228628    -0.61230
O43         O  0.04094230  0.30427560  0.51282386    -0.52150
C44         C  0.15958923  0.34149867  0.01363231     0.69880
O45         O  0.14273956  0.35689615  0.48218342    -0.47000
C46         C  0.05996031  0.39281332  0.07674424     0.74580
O47         O  0.08503444  0.40294414  0.46340303    -0.58860
O48         O  0.05540695  0.35728356  0.07485912    -0.48950
O49         O  0.03096485  0.37443629  0.97258514    -0.55290
C50         C  0.05336769  0.28968106  0.47862067     0.84760
O51         O  0.13678727  0.33201905  0.04375651    -0.57190
O52         O  0.07994298  0.40693141  0.04684771    -0.60480
In53       In  0.40553213  0.35415819  0.50243196     1.36870
C54         C  0.44565896  0.39887764  0.44978351     0.77210
O55         O  0.40821098  0.40814739  0.03910444    -0.61230
O56         O  0.43189157  0.35894584  0.06873291    -0.52150
C57         C  0.32864837  0.34318160  0.50719468     0.69880
O58         O  0.34532095  0.36068988  0.47704131    -0.47000
C59         C  0.43199655  0.28930819  0.47264982     0.74580
O60         O  0.40879698  0.40101700  0.45338819    -0.58860
O61         O  0.44339924  0.30243765  0.50815978    -0.48950
O62         O  0.46076025  0.37197857  0.47038138    -0.55290
C63         C  0.42733608  0.39445662  0.06992557     0.84760
O64         O  0.35163357  0.33165355  0.03622030    -0.57190
O65         O  0.40485394  0.30750813  0.45467034    -0.60480
In66       In  0.99423680  0.46154606  0.15591589     1.36870
C67         C  0.94877202  0.00512116  0.10568144     0.77210
O68         O  0.00327392  0.99605546  0.21534202    -0.61230
O69         O  0.04864463  0.99554104  0.16864142    -0.52150
C70         C  0.95181216  0.41472120  0.20341634     0.69880
O71         O  0.93908514  0.42908792  0.16909313    -0.47000
C72         C  0.03993689  0.41697861  0.10788689     0.74580
O73         O  0.95258673  0.47002866  0.10062417    -0.58860
O74         O  0.03828910  0.45233370  0.10337216    -0.48950
O75         O  0.96633293  0.01797681  0.13795932    -0.55290
C76         C  0.03604702  0.00891752  0.20335637     0.84760
O77         O  0.98521972  0.42628930  0.21505867    -0.57190
O78         O  0.02015351  0.40431613  0.13870236    -0.60480
In79       In  0.49304127  0.21256262  0.40196788     1.36870
C80         C  0.53727837  0.25795214  0.35256257     0.77210
O81         O  0.46713188  0.15571692  0.38227978    -0.61230
O82         O  0.45016950  0.20452743  0.34782697    -0.52150
C83         C  0.53481048  0.16554382  0.44947410     0.69880
O84         O  0.54840083  0.18112166  0.41622234    -0.47000
C85         C  0.45177423  0.25833752  0.45087196     0.74580
O86         O  0.53662356  0.22249590  0.34888814    -0.58860
O87         O  0.43758762  0.24286927  0.41791651    -0.48950
O88         O  0.51723065  0.27031512  0.38313354    -0.55290
C89         C  0.44803334  0.16910051  0.35133781     0.84760
O90         O  0.50089793  0.17603438  0.46010154    -0.57190
O91         O  0.48607133  0.24818666  0.46066166    -0.60480
In92       In  0.07919354  0.10618590  0.25593460     1.36870
C93         C  0.03458559  0.14763997  0.20484520     0.77210
O94         O  0.08026251  0.06104913  0.20615778    -0.61230
O95         O  0.04568336  0.05151402  0.26198879    -0.52150
C96         C  0.15681456  0.10331911  0.26181248     0.69880
O97         O  0.13880185  0.12242071  0.23393770    -0.47000
C98         C  0.05598733  0.14619874  0.32319276     0.74580
O99         O  0.07159550  0.14965043  0.20375928    -0.58860
O100        O  0.05428552  0.11039443  0.32314966    -0.48950
O101        O  0.02137881  0.12179967  0.22878404    -0.55290
C102        C  0.05547091  0.04042318  0.22511461     0.84760
O103        O  0.13491087  0.08445830  0.28667746    -0.57190
O104        O  0.07302757  0.16056474  0.29135304    -0.60480
In105      In  0.40362689  0.10734334  0.25099238     1.36870
C106        C  0.44341301  0.15268898  0.19891413     0.77210
O107        O  0.40905399  0.16048935  0.28902036    -0.61230
O108        O  0.43112308  0.11010898  0.31719167    -0.52150
C109        C  0.32626607  0.10140554  0.25936469     0.69880
O110        O  0.34281306  0.12245855  0.23213880    -0.47000
C111        C  0.42914315  0.04271119  0.21927207     0.74580
O112        O  0.40637972  0.15200614  0.19944682    -0.58860
O113        O  0.43954143  0.05442929  0.25571938    -0.48950
O114        O  0.45930113  0.12746264  0.22157086    -0.55290
C115        C  0.42795467  0.14569827  0.31927690     0.84760
O116        O  0.34952039  0.08239717  0.28240879    -0.57190
O117        O  0.40318712  0.06224042  0.20088438    -0.60480
In118      In  0.90181440  0.32054237  0.25782193     1.36870
C119        C  0.93438057  0.26930147  0.20741492     0.77210
O120        O  0.90544563  0.36449022  0.20650722    -0.61230
O121        O  0.94033036  0.37242074  0.26234635    -0.52150
C122        C  0.82523741  0.33418273  0.26064521     0.69880
O123        O  0.84216547  0.31692335  0.23088567    -0.47000
C124        C  0.92675323  0.28333359  0.32679447     0.74580
O125        O  0.89829348  0.26917673  0.21598091    -0.58860
O126        O  0.93511767  0.31779984  0.32055351    -0.48950
O127        O  0.95268486  0.29781464  0.22121635    -0.55290
C128        C  0.93129215  0.38386542  0.22528551     0.84760
O129        O  0.84783392  0.34445272  0.29067456    -0.57190
O130        O  0.90209435  0.26976690  0.30099761    -0.60480
In131      In  0.57951212  0.32269595  0.25347751     1.36870
C132        C  0.54286897  0.27549856  0.20077594     0.77210
O133        O  0.57685065  0.26893730  0.29113019    -0.61230
O134        O  0.55149258  0.31793331  0.31894029    -0.52150
C135        C  0.65614105  0.33517311  0.26043361     0.69880
O136        O  0.64024681  0.31884982  0.22897750    -0.47000
C137        C  0.55163843  0.38694841  0.22256373     0.74580
O138        O  0.57956493  0.27472899  0.20619974    -0.58860
O139        O  0.53996742  0.37337916  0.25780526    -0.48950
O140        O  0.52613398  0.30273413  0.21903544    -0.55290
C141        C  0.55665457  0.28252119  0.32098895     0.84760
O142        O  0.63242545  0.34524301  0.28923716    -0.57190
O143        O  0.57949651  0.36941936  0.20532474    -0.60480
In144      In  0.99210327  0.21343550  0.40629123     1.36870
C145        C  0.03629731  0.17005916  0.35494402     0.77210
O146        O  0.98290513  0.17920510  0.46624750    -0.61230
O147        O  0.93831552  0.17868456  0.41844351    -0.52150
C148        C  0.03294679  0.25909486  0.45636646     0.69880
O149        O  0.04814672  0.24187375  0.42522874    -0.47000
C150        C  0.94726116  0.25936753  0.35810991     0.74580
O151        O  0.03117514  0.20490642  0.34896504    -0.58860
O152        O  0.94224245  0.22408820  0.35999069    -0.48950
O153        O  0.02059087  0.15740772  0.38842051    -0.55290
C154        C  0.95064518  0.16563922  0.45358775     0.84760
O155        O  0.99753661  0.25087817  0.46381409    -0.57190
O156        O  0.97381199  0.27158599  0.38239462    -0.60480
C157        C  0.76215813  0.34505775  0.29910182    -0.20680
C158        C  0.78222519  0.34046502  0.26019156    -0.07240
C159        C  0.76045095  0.33972529  0.22147553     0.13630
C160        C  0.71947651  0.34001750  0.22309504    -0.20730
C161        C  0.69923208  0.34123073  0.26209429    -0.07250
C162        C  0.72083466  0.34551488  0.30057815     0.13620
C163        C  0.70080592  0.34903998  0.34330908    -0.24080
H164        H  0.77877275  0.34658277  0.32864899     0.14900
H165        H  0.70304103  0.33820873  0.19343418     0.14930
C166        C  0.77977644  0.33866935  0.17801723    -0.24030
H167        H  0.72228544  0.35166281  0.36993005     0.05140
H168        H  0.68244711  0.32357784  0.34952573     0.08370
H169        H  0.68214906  0.37472221  0.34350880     0.08370
H170        H  0.79456574  0.31111528  0.17317561     0.08350
H171        H  0.80132350  0.36221581  0.17515264     0.08350
H172        H  0.75813334  0.34190009  0.15164004     0.05130
C173        C  0.50774119  0.17714954  0.17547077    -0.20680
C174        C  0.46718530  0.18322005  0.17908614    -0.07240
C175        C  0.45269385  0.22050764  0.17470060     0.13630
C176        C  0.47938516  0.25083410  0.17475182    -0.20730
C177        C  0.51978921  0.24475858  0.18038944    -0.07250
C178        C  0.53442482  0.20748132  0.17660388     0.13620
C179        C  0.57768564  0.19887006  0.17766112    -0.24080
H180        H  0.51882471  0.14843922  0.17678544     0.14900
H181        H  0.46819504  0.27951254  0.17542831     0.14930
C182        C  0.40941309  0.22909537  0.17430296    -0.24030
H183        H  0.58345461  0.16840899  0.17173161     0.05140
H184        H  0.59014290  0.20577677  0.20955158     0.08370
H185        H  0.59297982  0.21542540  0.15237886     0.08370
H186        H  0.39608390  0.22140732  0.20555880     0.08350
H187        H  0.39485697  0.21310423  0.14813389     0.08350
H188        H  0.40376015  0.25967885  0.16880244     0.05130
C189        C  0.96746874  0.16936263  0.18969309    -0.20680
C190        C  0.00795721  0.17606080  0.18559792    -0.07240
C191        C  0.02098287  0.21277211  0.17397166     0.13630
C192        C  0.99417224  0.24276044  0.17502408    -0.20730
C193        C  0.95521986  0.23691860  0.18815620    -0.07250
C194        C  0.94086256  0.19938861  0.19194768     0.13620
C195        C  0.89865486  0.19056285  0.20262063    -0.24080
H196        H  0.95709412  0.14088617  0.19639163     0.14900
H197        H  0.00475203  0.27143592  0.17006994     0.14930
C198        C  0.06332204  0.22142862  0.16395675    -0.24030
H199        H  0.89272223  0.15961175  0.20262265     0.05140
H200        H  0.87905674  0.20374398  0.17843155     0.08370
H201        H  0.89145446  0.20119860  0.23505814     0.08370
H202        H  0.07373971  0.20236894  0.13821565     0.08350
H203        H  0.08171110  0.21790618  0.19302805     0.08350
H204        H  0.06728446  0.25105329  0.15264704     0.05130
C205        C  0.26319367  0.13487612  0.25653899    -0.20680
C206        C  0.28304982  0.10080436  0.26392480    -0.07240
C207        C  0.26120580  0.06766692  0.27336264     0.13630
C208        C  0.21991004  0.06940279  0.27381070    -0.20730
C209        C  0.20015905  0.10332168  0.26462870    -0.07250
C210        C  0.22219576  0.13667841  0.25697018     0.13620
C211        C  0.20284898  0.17458101  0.25022960    -0.24080
H212        H  0.27998756  0.16041385  0.25012354     0.14900
H213        H  0.20295030  0.04391558  0.27993115     0.14930
C214        C  0.28107670  0.03024951  0.28100894    -0.24030
H215        H  0.22471976  0.19791686  0.24806832     0.05140
H216        H  0.18306992  0.18077187  0.27751914     0.08370
H217        H  0.18586921  0.17461421  0.21990979     0.08370
H218        H  0.29993906  0.53198712  0.30993417     0.08350
H219        H  0.29928960  0.02282297  0.25283979     0.08350
H220        H  0.25946687  0.50705184  0.28618032     0.05130
C221        C  0.26677550  0.33333268  0.04828262    -0.20680
C222        C  0.28554296  0.33754773  0.50847634    -0.07240
C223        C  0.26256945  0.33771589  0.47066018     0.13630
C224        C  0.22167346  0.33694134  0.47390768    -0.20730
C225        C  0.20270723  0.33593525  0.01374019    -0.07250
C226        C  0.22555858  0.33253081  0.05144646     0.13620
C227        C  0.20698690  0.32953481  0.09505342    -0.24080
H228        H  0.28436094  0.33225686  0.07718556     0.14900
H229        H  0.20429426  0.33816657  0.44485345     0.14930
C230        C  0.28058320  0.33846310  0.42653422    -0.24030
H231        H  0.22934837  0.32755971  0.12086708     0.05140
H232        H  0.18838017  0.30369418  0.09675808     0.08370
H233        H  0.18882544  0.35493070  0.10125922     0.08370
H234        H  0.30177839  0.31486447  0.42330304     0.08350
H235        H  0.29557810  0.36593991  0.42078490     0.08350
H236        H  0.25812075  0.33512648  0.40099812     0.05130
C237        C  0.53429602  0.45782554  0.42382210    -0.20680
C238        C  0.51741214  0.49375711  0.42829052    -0.07240
C239        C  0.47624539  0.49735711  0.42342631     0.13630
C240        C  0.45289806  0.46456121  0.42374343    -0.20730
C241        C  0.46981261  0.42871963  0.42917247    -0.07250
C242        C  0.51094379  0.42503911  0.42441095     0.13620
C243        C  0.53075622  0.38698111  0.42229749    -0.24080
H244        H  0.56593612  0.45497808  0.42482613     0.14900
H245        H  0.42126021  0.46740443  0.42473815     0.14930
C246        C  0.45634961  0.03534744  0.42044745    -0.24030
H247        H  0.56216443  0.38986219  0.41336677     0.05140
H248        H  0.51622924  0.36914184  0.39766807     0.08370
H249        H  0.52980843  0.37251820  0.45382923     0.08370
H250        H  0.47080740  0.05297063  0.39548957     0.08350
H251        H  0.45728644  0.05010279  0.45169527     0.08350
H252        H  0.42493985  0.03231303  0.41147988     0.05130
C253        C  0.01420570  0.50164035  0.43655827    -0.20680
C254        C  0.97356929  0.49475156  0.43593416    -0.07240
C255        C  0.95996755  0.45770460  0.42686756     0.13630
C256        C  0.98695114  0.42785078  0.42685273    -0.20730
C257        C  0.02668296  0.43409411  0.43666146    -0.07250
C258        C  0.04107033  0.47173515  0.93769904     0.13620
C259        C  0.08391878  0.48089927  0.94418742    -0.24080
H260        H  0.02489842  0.03029449  0.94120031     0.14900
H261        H  0.97618096  0.39903915  0.42393872     0.14930
C262        C  0.91709029  0.44860127  0.42068199    -0.24030
H263        H  0.08971977  0.51181728  0.94197739     0.05140
H264        H  0.10163373  0.46682227  0.91911555     0.08370
H265        H  0.09362324  0.47147861  0.97643270     0.08370
H266        H  0.90468599  0.46696889  0.39515741     0.08350
H267        H  0.90084078  0.45271369  0.45104044     0.08350
H268        H  0.91253896  0.41869985  0.41086783     0.05130
C269        C  0.72232035  0.07891348  0.46919032    -0.20680
C270        C  0.70199212  0.08215059  0.50802471    -0.07240
C271        C  0.72367707  0.08709933  0.04637336     0.13630
C272        C  0.76497333  0.08625273  0.04494595    -0.20730
C273        C  0.78511760  0.08054917  0.50628207    -0.07250
C274        C  0.76335123  0.07820086  0.46766301     0.13620
C275        C  0.78278959  0.07539402  0.42440127    -0.24080
H276        H  0.70591639  0.07627631  0.43959571     0.14900
H277        H  0.78156428  0.08882882  0.07441656     0.14930
C278        C  0.70378710  0.09203195  0.08901240    -0.24030
H279        H  0.76115984  0.07692694  0.39781526     0.05140
H280        H  0.79817990  0.04793335  0.42141581     0.08370
H281        H  0.80388574  0.09915846  0.42012958     0.08370
H282        H  0.68493519  0.06706630  0.09602349     0.08350
H283        H  0.68569137  0.11808190  0.08849637     0.08350
H284        H  0.72533794  0.09485439  0.11553911     0.05130
In285      In  0.90597083  0.06826163  0.00552709     1.36870
C286        C  0.94796262  0.02395697  0.95508218     0.77210
O287        O  0.90649627  0.11363184  0.95583994    -0.61230
O288        O  0.94105779  0.12217878  0.01187530    -0.52150
C289        C  0.82844279  0.07623500  0.00708720     0.69880
O290        O  0.84671502  0.05903553  0.97813211    -0.47000
C291        C  0.92873987  0.02894320  0.57384287     0.74580
O292        O  0.91110762  0.02118889  0.95767627    -0.58860
O293        O  0.93183326  0.06463975  0.57242838    -0.48950
O294        O  0.96225508  0.05169448  0.97511226    -0.55290
C295        C  0.93137909  0.13383485  0.97505819     0.84760
O296        O  0.85010304  0.08887004  0.53674986    -0.57190
O297        O  0.91022541  0.01451492  0.54303299    -0.60480
In298      In  0.58121361  0.06909684  0.00068952     1.36870
C299        C  0.54164092  0.02386543  0.94820943     0.77210
O300        O  0.57551377  0.01547412  0.53824105    -0.61230
O301        O  0.55428246  0.06590458  0.56684160    -0.52150
C302        C  0.65858353  0.07809940  0.00653243     0.69880
O303        O  0.64157982  0.06282361  0.97508603    -0.47000
C304        C  0.55476174  0.13430390  0.97094630     0.74580
O305        O  0.57827859  0.02100176  0.95356163    -0.58860
O306        O  0.54363447  0.12092597  0.00646770    -0.48950
O307        O  0.52665916  0.05183356  0.96668646    -0.55290
C308        C  0.55696935  0.03023336  0.56865740     0.84760
O309        O  0.63560913  0.08904072  0.53561929    -0.57230
O310        O  0.58174826  0.11617874  0.95284273    -0.60480
In311      In  0.49066178  0.46401416  0.65107886     1.36870
C312        C  0.44638917  0.41895484  0.60164253     0.77210
O313        O  0.51834318  0.02028791  0.63199279    -0.61230
O314        O  0.53329425  0.47156795  0.59670143    -0.52150
C315        C  0.44883776  0.01153146  0.69762457     0.69880
O316        O  0.43593856  0.49722309  0.66341234    -0.47000
C317        C  0.53169483  0.41782499  0.70038497     0.74580
O318        O  0.44760092  0.45436887  0.59739925    -0.58860
O319        O  0.54609068  0.43370137  0.66771370    -0.48950
O320        O  0.46573701  0.40651662  0.63289134    -0.55290
C321        C  0.53662068  0.00685499  0.60065906     0.84760
O322        O  0.48194821  0.99962608  0.70948695    -0.57190
O323        O  0.49722464  0.42767313  0.70965092    -0.60480
In324      In  0.08292547  0.35362868  0.50895693     1.36870
C325        C  0.04860140  0.40240095  0.95636526     0.77210
O326        O  0.08265850  0.30597420  0.96228629    -0.61230
O327        O  0.04094227  0.30427561  0.01282386    -0.52150
C328        C  0.15958925  0.34149866  0.51363231     0.69880
O329        O  0.14273954  0.35689615  0.98218342    -0.47000
C330        C  0.05996033  0.39281332  0.57674424     0.74580
O331        O  0.08503442  0.40294414  0.96340303    -0.58860
O332        O  0.05540697  0.35728356  0.57485912    -0.48950
O333        O  0.03096486  0.37443629  0.47258514    -0.55290
C334        C  0.05336767  0.28968106  0.97862068     0.84760
O335        O  0.13678729  0.33201904  0.54375651    -0.57190
O336        O  0.07994300  0.40693141  0.54684772    -0.60480
In337      In  0.40553211  0.35415819  0.00243196     1.36870
C338        C  0.44565894  0.39887765  0.94978351     0.77210
O339        O  0.40821099  0.40814739  0.53910443    -0.61230
O340        O  0.43189158  0.35894584  0.56873291    -0.52150
C341        C  0.32864835  0.34318161  0.00719467     0.69880
O342        O  0.34532094  0.36068989  0.97704131    -0.47000
C343        C  0.43199654  0.28930820  0.97264982     0.74580
O344        O  0.40879696  0.40101701  0.95338819    -0.58860
O345        O  0.44339922  0.30243765  0.00815978    -0.48950
O346        O  0.46076024  0.37197857  0.97038138    -0.55290
C347        C  0.42733610  0.39445661  0.56992556     0.84760
O348        O  0.35163359  0.33165355  0.53622030    -0.57190
O349        O  0.40485393  0.30750814  0.95467034    -0.60480
In350      In  0.99423681  0.46154606  0.65591589     1.36870
C351        C  0.94877203  0.00512115  0.60568143     0.77210
O352        O  0.00327393  0.99605545  0.71534202    -0.61230
O353        O  0.04864463  0.99554104  0.66864142    -0.52150
C354        C  0.95181217  0.41472121  0.70341633     0.69880
O355        O  0.93908515  0.42908792  0.66909312    -0.47000
C356        C  0.03993691  0.41697861  0.60788689     0.74580
O357        O  0.95258674  0.47002866  0.60062417    -0.58860
O358        O  0.03828912  0.45233370  0.60337216    -0.48950
O359        O  0.96633293  0.01797680  0.63795932    -0.55290
C360        C  0.03604702  0.00891752  0.70335636     0.84760
O361        O  0.98521973  0.42628931  0.71505867    -0.57190
O362        O  0.02015352  0.40431613  0.63870237    -0.60480
In363      In  0.49304126  0.21256262  0.90196788     1.36870
C364        C  0.53727836  0.25795214  0.85256257     0.77210
O365        O  0.46713188  0.15571692  0.88227978    -0.61230
O366        O  0.45016949  0.20452743  0.84782697    -0.52150
C367        C  0.53481047  0.16554382  0.94947411     0.69880
O368        O  0.54840082  0.18112167  0.91622235    -0.47000
C369        C  0.45177422  0.25833753  0.95087196     0.74580
O370        O  0.53662355  0.22249590  0.84888814    -0.58860
O371        O  0.43758761  0.24286928  0.91791651    -0.48950
O372        O  0.51723064  0.27031512  0.88313354    -0.55290
C373        C  0.44803334  0.16910051  0.85133781     0.84760
O374        O  0.50089791  0.17603438  0.96010154    -0.57190
O375        O  0.48607131  0.24818666  0.96066166    -0.60480
In376      In  0.07919354  0.10618589  0.75593460     1.36870
C377        C  0.03458560  0.14763998  0.70484520     0.77210
O378        O  0.08026250  0.06104913  0.70615778    -0.61230
O379        O  0.04568336  0.05151402  0.76198879    -0.52150
C380        C  0.15681456  0.10331909  0.76181250     0.69880
O381        O  0.13880185  0.12242069  0.73393772    -0.47000
C382        C  0.05598732  0.14619873  0.82319277     0.74580
O383        O  0.07159552  0.14965043  0.70375929    -0.58860
O384        O  0.05428550  0.11039443  0.82314966    -0.48950
O385        O  0.02137882  0.12179967  0.72878404    -0.55290
C386        C  0.05547091  0.04042317  0.72511461     0.84760
O387        O  0.13491087  0.08445829  0.78667748    -0.57190
O388        O  0.07302757  0.16056473  0.79135305    -0.60480
In389      In  0.40362689  0.10734333  0.75099239     1.36870
C390        C  0.44341300  0.15268897  0.69891414     0.77210
O391        O  0.40905398  0.16048935  0.78902037    -0.61230
O392        O  0.43112308  0.11010898  0.81719168    -0.52150
C393        C  0.32626607  0.10140552  0.75936471     0.69880
O394        O  0.34281305  0.12245854  0.73213882    -0.47000
C395        C  0.42914315  0.04271118  0.71927208     0.74580
O396        O  0.40637971  0.15200613  0.69944682    -0.58860
O397        O  0.43954143  0.05442928  0.75571938    -0.48950
O398        O  0.45930112  0.12746264  0.72157086    -0.55290
C399        C  0.42795467  0.14569827  0.81927691     0.84760
O400        O  0.34952039  0.08239715  0.78240880    -0.57190
O401        O  0.40318711  0.06224041  0.70088438    -0.60480
In402      In  0.90181440  0.32054237  0.75782192     1.36870
C403        C  0.93438059  0.26930148  0.70741491     0.77210
O404        O  0.90544564  0.36449022  0.70650720    -0.61230
O405        O  0.94033036  0.37242076  0.76234634    -0.52150
C406        C  0.82523742  0.33418273  0.76064520     0.69880
O407        O  0.84216548  0.31692335  0.73088565    -0.47000
C408        C  0.92675323  0.28333360  0.82679446     0.74580
O409        O  0.89829350  0.26917674  0.71598089    -0.58860
O410        O  0.93511767  0.31779985  0.82055350    -0.48950
O411        O  0.95268487  0.29781465  0.72121635    -0.55290
C412        C  0.93129215  0.38386543  0.72528550     0.84760
O413        O  0.84783392  0.34445273  0.79067454    -0.57190
O414        O  0.90209435  0.26976691  0.80099760    -0.60480
In415      In  0.57951212  0.32269594  0.75347751     1.36870
C416        C  0.54286896  0.27549855  0.70077594     0.77210
O417        O  0.57685064  0.26893730  0.79113019    -0.61230
O418        O  0.55149257  0.31793330  0.81894028    -0.52150
C419        C  0.65614105  0.33517310  0.76043360     0.69880
O420        O  0.64024681  0.31884980  0.72897749    -0.47000
C421        C  0.55163844  0.38694841  0.72256373     0.74580
O422        O  0.57956492  0.27472898  0.70619974    -0.58860
O423        O  0.53996743  0.37337916  0.75780526    -0.48950
O424        O  0.52613398  0.30273413  0.71903544    -0.55290
C425        C  0.55665457  0.28252118  0.82098895     0.84760
O426        O  0.63242546  0.34524300  0.78923715    -0.57190
O427        O  0.57949651  0.36941935  0.70532474    -0.60480
In428      In  0.99210326  0.21343550  0.90629123     1.36870
C429        C  0.03629729  0.17005916  0.85494402     0.77210
O430        O  0.98290512  0.17920510  0.96624750    -0.61230
O431        O  0.93831551  0.17868457  0.91844352    -0.52150
C432        C  0.03294677  0.25909486  0.95636647     0.69880
O433        O  0.04814671  0.24187373  0.92522875    -0.47000
C434        C  0.94726116  0.25936753  0.85810990     0.74580
O435        O  0.03117514  0.20490641  0.84896506    -0.58860
O436        O  0.94224243  0.22408821  0.85999069    -0.48950
O437        O  0.02059083  0.15740771  0.88842050    -0.55290
C438        C  0.95064517  0.16563922  0.95358776     0.84760
O439        O  0.99753659  0.25087818  0.96381408    -0.57190
O440        O  0.97381200  0.27158599  0.88239461    -0.60480
C441        C  0.76215813  0.34505775  0.79910180    -0.20680
C442        C  0.78222519  0.34046501  0.76019155    -0.07240
C443        C  0.76045095  0.33972527  0.72147551     0.13630
C444        C  0.71947651  0.34001747  0.72309503    -0.20730
C445        C  0.69923208  0.34123072  0.76209428    -0.07250
C446        C  0.72083467  0.34551489  0.80057814     0.13620
C447        C  0.70080592  0.34904000  0.84330906    -0.24080
H448        H  0.77877275  0.34658279  0.82864897     0.14900
H449        H  0.70304103  0.33820869  0.69343417     0.14930
C450        C  0.77977644  0.33866931  0.67801721    -0.24030
H451        H  0.72228545  0.35166284  0.86993003     0.05140
H452        H  0.68244712  0.32357786  0.84952573     0.08370
H453        H  0.68214906  0.37472223  0.84350877     0.08370
H454        H  0.79456574  0.31111524  0.67317561     0.08350
H455        H  0.80132349  0.36221577  0.67515261     0.08350
H456        H  0.75813333  0.34190003  0.65164003     0.05130
C457        C  0.50774117  0.17714953  0.67547077    -0.20680
C458        C  0.46718529  0.18322004  0.67908615    -0.07240
C459        C  0.45269383  0.22050764  0.67470061     0.13630
C460        C  0.47938515  0.25083410  0.67475183    -0.20730
C461        C  0.51978920  0.24475858  0.68038944    -0.07250
C462        C  0.53442481  0.20748132  0.67660387     0.13620
C463        C  0.57768563  0.19887005  0.67766110    -0.24080
H464        H  0.51882470  0.14843922  0.67678543     0.14900
H465        H  0.46819503  0.27951254  0.67542833     0.14930
C466        C  0.40941308  0.22909537  0.67430298    -0.24030
H467        H  0.58345459  0.16840898  0.67173159     0.05140
H468        H  0.59014290  0.20577676  0.70955156     0.08370
H469        H  0.59297980  0.21542540  0.65237884     0.08370
H470        H  0.39608389  0.22140731  0.70555883     0.08350
H471        H  0.39485695  0.21310423  0.64813391     0.08350
H472        H  0.40376013  0.25967884  0.66880247     0.05130
C473        C  0.96746875  0.16936264  0.68969308    -0.20680
C474        C  0.00795723  0.17606081  0.68559792    -0.07240
C475        C  0.02098290  0.21277212  0.67397168     0.13630
C476        C  0.99417226  0.24276045  0.67502409    -0.20730
C477        C  0.95521988  0.23691861  0.68815620    -0.07250
C478        C  0.94086258  0.19938862  0.69194767     0.13620
C479        C  0.89865487  0.19056286  0.70262060    -0.24080
H480        H  0.95709414  0.14088618  0.69639162     0.14900
H481        H  0.00475206  0.27143593  0.67006996     0.14930
C482        C  0.06332207  0.22142863  0.66395679    -0.24030
H483        H  0.89272225  0.15961176  0.70262262     0.05140
H484        H  0.87905676  0.20374400  0.67843152     0.08370
H485        H  0.89145447  0.20119861  0.73505811     0.08370
H486        H  0.07373974  0.20236896  0.63821568     0.08350
H487        H  0.08171112  0.21790618  0.69302808     0.08350
H488        H  0.06728449  0.25105331  0.65264707     0.05130
C489        C  0.26319367  0.13487611  0.75653904    -0.20680
C490        C  0.28304982  0.10080435  0.76392482    -0.07240
C491        C  0.26120580  0.06766691  0.77336265     0.13630
C492        C  0.21991004  0.06940278  0.77381071    -0.20730
C493        C  0.20015905  0.10332167  0.76462872    -0.07250
C494        C  0.22219575  0.13667840  0.75697023     0.13620
C495        C  0.20284898  0.17458100  0.75022967    -0.24080
H496        H  0.27998756  0.16041384  0.75012360     0.14900
H497        H  0.20295030  0.04391556  0.77993114     0.14930
C498        C  0.28107669  0.03024949  0.78100893    -0.24030
H499        H  0.22471975  0.19791685  0.74806839     0.05140
H500        H  0.18306992  0.18077185  0.77751921     0.08370
H501        H  0.18586921  0.17461422  0.71990985     0.08370
H502        H  0.29993906  0.53198711  0.80993416     0.08350
H503        H  0.29928960  0.02282296  0.75283978     0.08350
H504        H  0.25946687  0.50705183  0.78618032     0.05130
C505        C  0.26677552  0.33333268  0.54828263    -0.20680
C506        C  0.28554294  0.33754774  0.00847633    -0.07240
C507        C  0.26256943  0.33771591  0.97066018     0.13630
C508        C  0.22167345  0.33694136  0.97390768    -0.20730
C509        C  0.20270725  0.33593524  0.51374020    -0.07250
C510        C  0.22555860  0.33253082  0.55144647     0.13620
C511        C  0.20698692  0.32953482  0.59505342    -0.24080
H512        H  0.28436096  0.33225687  0.57718557     0.14900
H513        H  0.20429424  0.33816660  0.94485344     0.14930
C514        C  0.28058318  0.33846313  0.92653421    -0.24030
H515        H  0.22934839  0.32755973  0.62086708     0.05140
H516        H  0.18838018  0.30369419  0.59675810     0.08370
H517        H  0.18882546  0.35493071  0.60125922     0.08370
H518        H  0.30177837  0.31486450  0.92330303     0.08350
H519        H  0.29557808  0.36593994  0.92078490     0.08350
H520        H  0.25812073  0.33512653  0.90099811     0.05130
C521        C  0.53429601  0.45782555  0.92382210    -0.20680
C522        C  0.51741213  0.49375711  0.92829052    -0.07240
C523        C  0.47624538  0.49735712  0.92342631     0.13630
C524        C  0.45289805  0.46456121  0.92374343    -0.20730
C525        C  0.46981260  0.42871963  0.92917248    -0.07250
C526        C  0.51094378  0.42503912  0.92441096     0.13620
C527        C  0.53075621  0.38698111  0.92229750    -0.24080
H528        H  0.56593611  0.45497808  0.92482613     0.14900
H529        H  0.42126020  0.46740443  0.92473815     0.14930
C530        C  0.45634960  0.03534745  0.92044745    -0.24030
H531        H  0.56216442  0.38986219  0.91336678     0.05140
H532        H  0.51622922  0.36914184  0.89766808     0.08370
H533        H  0.52980842  0.37251821  0.95382924     0.08370
H534        H  0.47080740  0.05297064  0.89548957     0.08350
H535        H  0.45728644  0.05010279  0.95169527     0.08350
H536        H  0.42493984  0.03231304  0.91147988     0.05130
C537        C  0.01420568  0.50164036  0.93655827    -0.20680
C538        C  0.97356927  0.49475156  0.93593417    -0.07240
C539        C  0.95996753  0.45770460  0.92686756     0.13630
C540        C  0.98695112  0.42785078  0.92685273    -0.20730
C541        C  0.02668295  0.43409412  0.93666146    -0.07250
C542        C  0.04107035  0.47173514  0.43769904     0.13620
C543        C  0.08391879  0.48089927  0.44418742    -0.24080
H544        H  0.02489845  0.03029450  0.44120033     0.14900
H545        H  0.97618095  0.39903916  0.92393872     0.14930
C546        C  0.91709027  0.44860128  0.92068199    -0.24030
H547        H  0.08971978  0.51181728  0.44197739     0.05140
H548        H  0.10163375  0.46682227  0.41911556     0.08370
H549        H  0.09362326  0.47147861  0.47643270     0.08370
H550        H  0.90468597  0.46696890  0.89515741     0.08350
H551        H  0.90084077  0.45271370  0.95104044     0.08350
H552        H  0.91253895  0.41869985  0.91086783     0.05130
C553        C  0.72232034  0.07891350  0.96919033    -0.20680
C554        C  0.70199211  0.08215060  0.00802472    -0.07240
C555        C  0.72367708  0.08709933  0.54637335     0.13630
C556        C  0.76497335  0.08625273  0.54494594    -0.20730
C557        C  0.78511758  0.08054918  0.00628208    -0.07250
C558        C  0.76335122  0.07820089  0.96766302     0.13620
C559        C  0.78278958  0.07539406  0.92440127    -0.24080
H560        H  0.70591638  0.07627634  0.93959572     0.14900
H561        H  0.78156429  0.08882882  0.57441655     0.14930
C562        C  0.70378712  0.09203197  0.58901239    -0.24030
H563        H  0.76115983  0.07692698  0.89781527     0.05140
H564        H  0.79817988  0.04793338  0.92141581     0.08370
H565        H  0.80388573  0.09915850  0.92012960     0.08370
H566        H  0.68493520  0.06706632  0.59602349     0.08350
H567        H  0.68569139  0.11808191  0.58849634     0.08350
H568        H  0.72533795  0.09485441  0.61553909     0.05130
In569      In  0.90597085  0.56826162  0.50552709     1.36870
C570        C  0.94796264  0.52395697  0.45508218     0.77210
O571        O  0.90649629  0.61363184  0.45583993    -0.61230
O572        O  0.94105780  0.62217878  0.51187530    -0.52150
C573        C  0.82844280  0.57623498  0.50708719     0.69880
O574        O  0.84671503  0.55903552  0.47813210    -0.47000
C575        C  0.92873985  0.52894320  0.07384288     0.74580
O576        O  0.91110764  0.52118889  0.45767626    -0.58860
O577        O  0.93183324  0.56463975  0.07242839    -0.48950
O578        O  0.96225510  0.55169448  0.47511226    -0.55290
C579        C  0.93137910  0.63383485  0.47505819     0.84760
O580        O  0.85010303  0.58887004  0.03674987    -0.57190
O581        O  0.91022540  0.51451492  0.04303300    -0.60480
In582      In  0.58121362  0.56909683  0.50068952     1.36870
C583        C  0.54164093  0.52386542  0.44820942     0.77210
O584        O  0.57551375  0.51547413  0.03824105    -0.61230
O585        O  0.55428245  0.56590458  0.06684160    -0.52150
C586        C  0.65858354  0.57809939  0.50653242     0.69880
O587        O  0.64157983  0.56282360  0.47508602    -0.47000
C588        C  0.55476175  0.63430389  0.47094629     0.74580
O589        O  0.57827860  0.52100175  0.45356163    -0.58860
O590        O  0.54363449  0.62092597  0.50646770    -0.48950
O591        O  0.52665917  0.55183355  0.46668646    -0.55290
C592        C  0.55696934  0.53023337  0.06865740     0.84760
O593        O  0.63560912  0.58904072  0.03561930    -0.57230
O594        O  0.58174826  0.61617873  0.45284273    -0.60480
In595      In  0.49066177  0.96401416  0.15107886     1.36870
C596        C  0.44638916  0.91895484  0.10164253     0.77210
O597        O  0.51834317  0.52028791  0.13199279    -0.61230
O598        O  0.53329424  0.97156795  0.09670143    -0.52150
C599        C  0.44883775  0.51153146  0.19762457     0.69880
O600        O  0.43593856  0.99722309  0.16341234    -0.47000
C601        C  0.53169483  0.91782500  0.20038497     0.74580
O602        O  0.44760091  0.95436887  0.09739926    -0.58860
O603        O  0.54609067  0.93370137  0.16771370    -0.48950
O604        O  0.46573700  0.90651662  0.13289134    -0.55290
C605        C  0.53662067  0.50685499  0.10065906     0.84760
O606        O  0.48194820  0.49962608  0.20948695    -0.57190
O607        O  0.49722463  0.92767313  0.20965092    -0.60480
In608      In  0.08292545  0.85362868  0.00895693     1.36870
C609        C  0.04860141  0.90240094  0.45636526     0.77210
O610        O  0.08265851  0.80597420  0.46228629    -0.61230
O611        O  0.04094229  0.80427560  0.51282386    -0.52150
C612        C  0.15958923  0.84149867  0.01363230     0.69880
O613        O  0.14273955  0.85689614  0.48218342    -0.47000
C614        C  0.05996031  0.89281332  0.07674424     0.74580
O615        O  0.08503443  0.90294413  0.46340303    -0.58860
O616        O  0.05540696  0.85728356  0.07485912    -0.48950
O617        O  0.03096484  0.87443629  0.97258515    -0.55290
C618        C  0.05336768  0.78968105  0.47862068     0.84760
O619        O  0.13678727  0.83201905  0.04375650    -0.57190
O620        O  0.07994298  0.90693141  0.04684771    -0.60480
In621      In  0.40553212  0.85415819  0.50243196     1.36870
C622        C  0.44565895  0.89887764  0.44978351     0.77210
O623        O  0.40821098  0.90814740  0.03910443    -0.61230
O624        O  0.43189157  0.85894584  0.06873291    -0.52150
C625        C  0.32864836  0.84318161  0.50719467     0.69880
O626        O  0.34532095  0.86068989  0.47704131    -0.47000
C627        C  0.43199655  0.78930820  0.47264982     0.74580
O628        O  0.40879697  0.90101700  0.45338818    -0.58860
O629        O  0.44339923  0.80243765  0.50815978    -0.48950
O630        O  0.46076025  0.87197857  0.47038138    -0.55290
C631        C  0.42733609  0.89445662  0.06992556     0.84760
O632        O  0.35163357  0.83165356  0.03622030    -0.57190
O633        O  0.40485394  0.80750814  0.45467034    -0.60480
In634      In  0.99423680  0.96154606  0.15591589     1.36870
C635        C  0.94877202  0.50512115  0.10568144     0.77210
O636        O  0.00327392  0.49605545  0.21534202    -0.61230
O637        O  0.04864462  0.49554104  0.16864142    -0.52150
C638        C  0.95181216  0.91472121  0.20341634     0.69880
O639        O  0.93908514  0.92908792  0.16909313    -0.47000
C640        C  0.03993689  0.91697862  0.10788689     0.74580
O641        O  0.95258672  0.97002867  0.10062418    -0.58860
O642        O  0.03828909  0.95233371  0.10337215    -0.48950
O643        O  0.96633291  0.51797680  0.13795933    -0.55290
C644        C  0.03604702  0.50891752  0.20335636     0.84760
O645        O  0.98521972  0.92628932  0.21505868    -0.57190
O646        O  0.02015352  0.90431613  0.13870237    -0.60480
In647      In  0.49304127  0.71256262  0.40196788     1.36870
C648        C  0.53727837  0.75795214  0.35256257     0.77210
O649        O  0.46713188  0.65571692  0.38227978    -0.61230
O650        O  0.45016950  0.70452743  0.34782697    -0.52150
C651        C  0.53481048  0.66554382  0.44947411     0.69880
O652        O  0.54840083  0.68112166  0.41622235    -0.47000
C653        C  0.45177423  0.75833753  0.45087196     0.74580
O654        O  0.53662355  0.72249590  0.34888814    -0.58860
O655        O  0.43758762  0.74286928  0.41791651    -0.48950
O656        O  0.51723065  0.77031512  0.38313355    -0.55290
C657        C  0.44803334  0.66910051  0.35133781     0.84760
O658        O  0.50089793  0.67603438  0.46010154    -0.57190
O659        O  0.48607133  0.74818666  0.46066166    -0.60480
In660      In  0.07919354  0.60618589  0.25593459     1.36870
C661        C  0.03458560  0.64763997  0.20484520     0.77210
O662        O  0.08026250  0.56104913  0.20615777    -0.61230
O663        O  0.04568336  0.55151402  0.26198878    -0.52150
C664        C  0.15681456  0.60331910  0.26181249     0.69880
O665        O  0.13880185  0.62242070  0.23393770    -0.47000
C666        C  0.05598732  0.64619873  0.32319276     0.74580
O667        O  0.07159551  0.64965043  0.20375928    -0.58860
O668        O  0.05428551  0.61039443  0.32314966    -0.48950
O669        O  0.02137882  0.62179967  0.22878403    -0.55290
C670        C  0.05547090  0.54042317  0.22511460     0.84760
O671        O  0.13491087  0.58445829  0.28667747    -0.57190
O672        O  0.07302757  0.66056473  0.29135304    -0.60480
In673      In  0.40362689  0.60734334  0.25099239     1.36870
C674        C  0.44341301  0.65268898  0.19891414     0.77210
O675        O  0.40905399  0.66048935  0.28902037    -0.61230
O676        O  0.43112308  0.61010898  0.31719168    -0.52150
C677        C  0.32626607  0.60140554  0.25936470     0.69880
O678        O  0.34281305  0.62245854  0.23213881    -0.47000
C679        C  0.42914315  0.54271119  0.21927208     0.74580
O680        O  0.40637972  0.65200614  0.19944682    -0.58860
O681        O  0.43954142  0.55442929  0.25571938    -0.48950
O682        O  0.45930113  0.62746264  0.22157086    -0.55290
C683        C  0.42795467  0.64569827  0.31927691     0.84760
O684        O  0.34952039  0.58239717  0.28240880    -0.57190
O685        O  0.40318711  0.56224042  0.20088438    -0.60480
In686      In  0.90181441  0.82054237  0.25782192     1.36870
C687        C  0.93438059  0.76930148  0.20741491     0.77210
O688        O  0.90544564  0.86449022  0.20650721    -0.61230
O689        O  0.94033036  0.87242075  0.26234635    -0.52150
C690        C  0.82523742  0.83418272  0.26064521     0.69880
O691        O  0.84216548  0.81692334  0.23088566    -0.47000
C692        C  0.92675323  0.78333359  0.32679447     0.74580
O693        O  0.89829350  0.76917674  0.21598090    -0.58860
O694        O  0.93511768  0.81779984  0.32055350    -0.48950
O695        O  0.95268487  0.79781465  0.22121635    -0.55290
C696        C  0.93129215  0.88386543  0.22528551     0.84760
O697        O  0.84783392  0.84445273  0.29067455    -0.57190
O698        O  0.90209435  0.76976691  0.30099761    -0.60480
In699      In  0.57951213  0.82269595  0.25347751     1.36870
C700        C  0.54286897  0.77549856  0.20077595     0.77210
O701        O  0.57685065  0.76893730  0.29113019    -0.61230
O702        O  0.55149258  0.81793331  0.31894029    -0.52150
C703        C  0.65614106  0.83517311  0.26043361     0.69880
O704        O  0.64024681  0.81884981  0.22897750    -0.47000
C705        C  0.55163844  0.88694841  0.22256373     0.74580
O706        O  0.57956493  0.77472899  0.20619974    -0.58860
O707        O  0.53996743  0.87337916  0.25780526    -0.48950
O708        O  0.52613398  0.80273413  0.21903545    -0.55290
C709        C  0.55665457  0.78252119  0.32098895     0.84760
O710        O  0.63242546  0.84524301  0.28923715    -0.57190
O711        O  0.57949651  0.86941936  0.20532474    -0.60480
In712      In  0.99210327  0.71343550  0.40629123     1.36870
C713        C  0.03629731  0.67005916  0.35494402     0.77210
O714        O  0.98290513  0.67920509  0.46624750    -0.61230
O715        O  0.93831552  0.67868457  0.41844351    -0.52150
C716        C  0.03294679  0.75909486  0.45636646     0.69880
O717        O  0.04814672  0.74187373  0.42522875    -0.47000
C718        C  0.94726116  0.75936753  0.35810991     0.74580
O719        O  0.03117514  0.70490641  0.34896505    -0.58860
O720        O  0.94224244  0.72408821  0.35999070    -0.48950
O721        O  0.02059085  0.65740771  0.38842050    -0.55290
C722        C  0.95064518  0.66563922  0.45358776     0.84760
O723        O  0.99753660  0.75087817  0.46381408    -0.57190
O724        O  0.97381200  0.77158599  0.38239461    -0.60480
C725        C  0.76215813  0.84505775  0.29910181    -0.20680
C726        C  0.78222520  0.84046501  0.26019156    -0.07240
C727        C  0.76045095  0.83972527  0.22147552     0.13630
C728        C  0.71947652  0.84001748  0.22309503    -0.20730
C729        C  0.69923208  0.84123072  0.26209429    -0.07250
C730        C  0.72083467  0.84551489  0.30057814     0.13620
C731        C  0.70080593  0.84904000  0.34330907    -0.24080
H732        H  0.77877275  0.84658279  0.32864898     0.14900
H733        H  0.70304103  0.83820870  0.19343418     0.14930
C734        C  0.77977644  0.83866931  0.17801722    -0.24030
H735        H  0.72228545  0.85166284  0.36993004     0.05140
H736        H  0.68244712  0.82357786  0.34952573     0.08370
H737        H  0.68214906  0.87472224  0.34350877     0.08370
H738        H  0.79456575  0.81111524  0.17317562     0.08350
H739        H  0.80132350  0.86221577  0.17515262     0.08350
H740        H  0.75813334  0.84190003  0.15164004     0.05130
C741        C  0.50774118  0.67714954  0.17547077    -0.20680
C742        C  0.46718530  0.68322005  0.17908614    -0.07240
C743        C  0.45269384  0.72050764  0.17470061     0.13630
C744        C  0.47938516  0.75083411  0.17475183    -0.20730
C745        C  0.51978920  0.74475858  0.18038945    -0.07250
C746        C  0.53442482  0.70748132  0.17660388     0.13620
C747        C  0.57768563  0.69887006  0.17766111    -0.24080
H748        H  0.51882471  0.64843922  0.17678543     0.14900
H749        H  0.46819504  0.77951255  0.17542832     0.14930
C750        C  0.40941308  0.72909538  0.17430297    -0.24030
H751        H  0.58345460  0.66840899  0.17173160     0.05140
H752        H  0.59014290  0.70577677  0.20955157     0.08370
H753        H  0.59297981  0.71542540  0.15237885     0.08370
H754        H  0.39608389  0.72140732  0.20555882     0.08350
H755        H  0.39485696  0.71310423  0.14813390     0.08350
H756        H  0.40376014  0.75967885  0.16880246     0.05130
C757        C  0.96746875  0.66936264  0.18969308    -0.20680
C758        C  0.00795723  0.67606081  0.18559792    -0.07240
C759        C  0.02098289  0.71277212  0.17397167     0.13630
C760        C  0.99417226  0.74276045  0.17502409    -0.20730
C761        C  0.95521988  0.73691861  0.18815620    -0.07250
C762        C  0.94086258  0.69938862  0.19194766     0.13620
C763        C  0.89865487  0.69056286  0.20262060    -0.24080
H764        H  0.95709413  0.64088618  0.19639161     0.14900
H765        H  0.00475206  0.77143593  0.17006996     0.14930
C766        C  0.06332207  0.72142862  0.16395678    -0.24030
H767        H  0.89272225  0.65961176  0.20262261     0.05140
H768        H  0.87905676  0.70374400  0.17843152     0.08370
H769        H  0.89145447  0.70119861  0.23505811     0.08370
H770        H  0.07373973  0.70236896  0.13821567     0.08350
H771        H  0.08171111  0.71790618  0.19302807     0.08350
H772        H  0.06728448  0.75105331  0.15264707     0.05130
C773        C  0.26319367  0.63487611  0.25653901    -0.20680
C774        C  0.28304982  0.60080436  0.26392481    -0.07240
C775        C  0.26120580  0.56766692  0.27336264     0.13630
C776        C  0.21991004  0.56940278  0.27381070    -0.20730
C777        C  0.20015905  0.60332167  0.26462870    -0.07250
C778        C  0.22219575  0.63667840  0.25697020     0.13620
C779        C  0.20284897  0.67458100  0.25022962    -0.24080
H780        H  0.27998756  0.66041384  0.25012356     0.14900
H781        H  0.20295031  0.54391557  0.27993114     0.14930
C782        C  0.28107670  0.53024950  0.28100894    -0.24030
H783        H  0.22471975  0.69791685  0.24806834     0.05140
H784        H  0.18306992  0.68077186  0.27751916     0.08370
H785        H  0.18586921  0.67461421  0.21990981     0.08370
H786        H  0.29993905  0.03198713  0.30993417     0.08350
H787        H  0.29928961  0.52282297  0.25283979     0.08350
H788        H  0.25946687  0.00705185  0.28618033     0.05130
C789        C  0.26677550  0.83333268  0.04828262    -0.20680
C790        C  0.28554295  0.83754774  0.50847633    -0.07240
C791        C  0.26256944  0.83771589  0.47066018     0.13630
C792        C  0.22167346  0.83694134  0.47390768    -0.20730
C793        C  0.20270723  0.83593526  0.01374019    -0.07250
C794        C  0.22555858  0.83253081  0.05144646     0.13620
C795        C  0.20698690  0.82953480  0.09505341    -0.24080
H796        H  0.28436094  0.83225685  0.07718556     0.14900
H797        H  0.20429425  0.83816658  0.44485345     0.14930
C798        C  0.28058319  0.83846311  0.42653422    -0.24030
H799        H  0.22934837  0.82755969  0.12086707     0.05140
H800        H  0.18838017  0.80369417  0.09675807     0.08370
H801        H  0.18882545  0.85493069  0.10125922     0.08370
H802        H  0.30177838  0.81486448  0.42330304     0.08350
H803        H  0.29557809  0.86593992  0.42078490     0.08350
H804        H  0.25812075  0.83512649  0.40099812     0.05130
C805        C  0.53429602  0.95782554  0.42382210    -0.20680
C806        C  0.51741214  0.99375711  0.42829052    -0.07240
C807        C  0.47624539  0.99735711  0.42342631     0.13630
C808        C  0.45289806  0.96456121  0.42374343    -0.20730
C809        C  0.46981261  0.92871963  0.42917247    -0.07250
C810        C  0.51094379  0.92503911  0.42441095     0.13620
C811        C  0.53075622  0.88698111  0.42229750    -0.24080
H812        H  0.56593612  0.95497807  0.42482613     0.14900
H813        H  0.42126021  0.96740443  0.42473815     0.14930
C814        C  0.45634961  0.53534744  0.42044745    -0.24030
H815        H  0.56216443  0.88986219  0.41336678     0.05140
H816        H  0.51622923  0.86914184  0.39766807     0.08370
H817        H  0.52980843  0.87251820  0.45382923     0.08370
H818        H  0.47080740  0.55297063  0.39548957     0.08350
H819        H  0.45728644  0.55010279  0.45169528     0.08350
H820        H  0.42493985  0.53231303  0.41147989     0.05130
C821        C  0.01420570  0.00164036  0.43655827    -0.20680
C822        C  0.97356929  0.99475156  0.43593417    -0.07240
C823        C  0.95996755  0.95770460  0.42686756     0.13630
C824        C  0.98695114  0.92785078  0.42685273    -0.20730
C825        C  0.02668296  0.93409412  0.43666146    -0.07250
C826        C  0.04107032  0.97173514  0.93769903     0.13620
C827        C  0.08391877  0.98089926  0.94418740    -0.24080
H828        H  0.02489843  0.53029450  0.94120033     0.14900
H829        H  0.97618096  0.89903915  0.42393871     0.14930
C830        C  0.91709029  0.94860128  0.42068198    -0.24030
H831        H  0.08971976  0.01181727  0.94197736     0.05140
H832        H  0.10163371  0.96682226  0.91911553     0.08370
H833        H  0.09362324  0.97147861  0.97643268     0.08370
H834        H  0.90468599  0.96696890  0.39515740     0.08350
H835        H  0.90084078  0.95271370  0.45104043     0.08350
H836        H  0.91253897  0.91869985  0.41086782     0.05130
C837        C  0.72232035  0.57891347  0.46919032    -0.20680
C838        C  0.70199212  0.58215059  0.50802471    -0.07240
C839        C  0.72367706  0.58709932  0.04637336     0.13630
C840        C  0.76497333  0.58625273  0.04494595    -0.20730
C841        C  0.78511760  0.58054917  0.50628207    -0.07250
C842        C  0.76335123  0.57820086  0.46766301     0.13620
C843        C  0.78278959  0.57539402  0.42440127    -0.24080
H844        H  0.70591639  0.57627630  0.43959571     0.14900
H845        H  0.78156428  0.58882881  0.07441656     0.14930
C846        C  0.70378710  0.59203195  0.08901240    -0.24030
H847        H  0.76115984  0.57692693  0.39781526     0.05140
H848        H  0.79817989  0.54793334  0.42141582     0.08370
H849        H  0.80388574  0.59915845  0.42012958     0.08370
H850        H  0.68493518  0.56706631  0.09602349     0.08350
H851        H  0.68569137  0.61808190  0.08849636     0.08350
H852        H  0.72533793  0.59485439  0.11553911     0.05130
In853      In  0.90597083  0.56826162  0.00552710     1.36870
C854        C  0.94796263  0.52395698  0.95508218     0.77210
O855        O  0.90649627  0.61363184  0.95583994    -0.61230
O856        O  0.94105779  0.62217878  0.01187531    -0.52150
C857        C  0.82844279  0.57623499  0.00708719     0.69880
O858        O  0.84671502  0.55903553  0.97813211    -0.47000
C859        C  0.92873987  0.52894320  0.57384287     0.74580
O860        O  0.91110763  0.52118890  0.95767626    -0.58860
O861        O  0.93183326  0.56463975  0.57242838    -0.48950
O862        O  0.96225508  0.55169448  0.97511227    -0.55290
C863        C  0.93137909  0.63383485  0.97505819     0.84760
O864        O  0.85010304  0.58887003  0.53674986    -0.57190
O865        O  0.91022542  0.51451492  0.54303299    -0.60480
In866      In  0.58121361  0.56909684  0.00068952     1.36870
C867        C  0.54164092  0.52386543  0.94820943     0.77210
O868        O  0.57551377  0.51547412  0.53824105    -0.61230
O869        O  0.55428246  0.56590458  0.56684160    -0.52150
C870        C  0.65858353  0.57809939  0.00653243     0.69880
O871        O  0.64157981  0.56282361  0.97508603    -0.47000
C872        C  0.55476173  0.63430390  0.97094630     0.74580
O873        O  0.57827859  0.52100176  0.95356163    -0.58860
O874        O  0.54363447  0.62092598  0.00646770    -0.48950
O875        O  0.52665916  0.55183356  0.96668646    -0.55290
C876        C  0.55696935  0.53023336  0.56865740     0.84760
O877        O  0.63560913  0.58904072  0.53561929    -0.57230
O878        O  0.58174825  0.61617874  0.95284273    -0.60480
In879      In  0.49066178  0.96401417  0.65107886     1.36870
C880        C  0.44638917  0.91895484  0.60164252     0.77210
O881        O  0.51834318  0.52028791  0.63199279    -0.61230
O882        O  0.53329425  0.97156795  0.59670143    -0.52150
C883        C  0.44883776  0.51153145  0.69762457     0.69880
O884        O  0.43593856  0.99722309  0.66341233    -0.47000
C885        C  0.53169483  0.91782499  0.70038496     0.74580
O886        O  0.44760092  0.95436887  0.59739925    -0.58860
O887        O  0.54609067  0.93370137  0.66771370    -0.48950
O888        O  0.46573700  0.90651662  0.63289134    -0.55290
C889        C  0.53662068  0.50685499  0.60065906     0.84760
O890        O  0.48194821  0.49962608  0.70948695    -0.57190
O891        O  0.49722464  0.92767314  0.70965092    -0.60480
In892      In  0.08292547  0.85362867  0.50895693     1.36870
C893        C  0.04860139  0.90240094  0.95636526     0.77210
O894        O  0.08265849  0.80597420  0.96228629    -0.61230
O895        O  0.04094227  0.80427561  0.01282387    -0.52150
C896        C  0.15958924  0.84149866  0.51363231     0.69880
O897        O  0.14273954  0.85689616  0.98218342    -0.47000
C898        C  0.05996032  0.89281332  0.57674424     0.74580
O899        O  0.08503441  0.90294413  0.96340302    -0.58860
O900        O  0.05540696  0.85728355  0.57485912    -0.48950
O901        O  0.03096486  0.87443629  0.47258514    -0.55290
C902        C  0.05336767  0.78968106  0.97862068     0.84760
O903        O  0.13678728  0.83201904  0.54375651    -0.57190
O904        O  0.07994299  0.90693141  0.54684771    -0.60480
In905      In  0.40553211  0.85415819  0.00243196     1.36870
C906        C  0.44565895  0.89887765  0.94978351     0.77210
O907        O  0.40821099  0.90814739  0.53910443    -0.61230
O908        O  0.43189157  0.85894584  0.56873291    -0.52150
C909        C  0.32864835  0.84318161  0.00719467     0.69880
O910        O  0.34532094  0.86068990  0.97704131    -0.47000
C911        C  0.43199654  0.78930820  0.97264982     0.74580
O912        O  0.40879697  0.90101701  0.95338819    -0.58860
O913        O  0.44339922  0.80243765  0.00815978    -0.48950
O914        O  0.46076024  0.87197858  0.97038138    -0.55290
C915        C  0.42733609  0.89445662  0.56992556     0.84760
O916        O  0.35163358  0.83165356  0.53622030    -0.57190
O917        O  0.40485393  0.80750814  0.95467033    -0.60480
In918      In  0.99423681  0.96154606  0.65591589     1.36870
C919        C  0.94877203  0.50512115  0.60568143     0.77210
O920        O  0.00327393  0.49605545  0.71534202    -0.61230
O921        O  0.04864464  0.49554104  0.66864142    -0.52150
C922        C  0.95181217  0.91472120  0.70341634     0.69880
O923        O  0.93908515  0.92908792  0.66909313    -0.47000
C924        C  0.03993690  0.91697861  0.60788688     0.74580
O925        O  0.95258674  0.97002866  0.60062417    -0.58860
O926        O  0.03828911  0.95233370  0.60337216    -0.48950
O927        O  0.96633294  0.51797680  0.63795932    -0.55290
C928        C  0.03604703  0.50891752  0.70335637     0.84760
O929        O  0.98521973  0.92628931  0.71505867    -0.57190
O930        O  0.02015352  0.90431613  0.63870236    -0.60480
In931      In  0.49304126  0.71256262  0.90196788     1.36870
C932        C  0.53727836  0.75795214  0.85256257     0.77210
O933        O  0.46713188  0.65571692  0.88227978    -0.61230
O934        O  0.45016949  0.70452743  0.84782697    -0.52150
C935        C  0.53481047  0.66554382  0.94947411     0.69880
O936        O  0.54840082  0.68112167  0.91622235    -0.47000
C937        C  0.45177422  0.75833753  0.95087196     0.74580
O938        O  0.53662355  0.72249591  0.84888814    -0.58860
O939        O  0.43758761  0.74286928  0.91791651    -0.48950
O940        O  0.51723064  0.77031512  0.88313354    -0.55290
C941        C  0.44803334  0.66910051  0.85133781     0.84760
O942        O  0.50089792  0.67603438  0.96010154    -0.57190
O943        O  0.48607132  0.74818666  0.96066166    -0.60480
In944      In  0.07919354  0.60618589  0.75593461     1.36870
C945        C  0.03458560  0.64763997  0.70484521     0.77210
O946        O  0.08026251  0.56104913  0.70615778    -0.61230
O947        O  0.04568337  0.55151401  0.76198879    -0.52150
C948        C  0.15681456  0.60331910  0.76181251     0.69880
O949        O  0.13880185  0.62242070  0.73393773    -0.47000
C950        C  0.05598732  0.64619873  0.82319277     0.74580
O951        O  0.07159551  0.64965043  0.70375930    -0.58860
O952        O  0.05428550  0.61039442  0.82314967    -0.48950
O953        O  0.02137882  0.62179967  0.72878405    -0.55290
C954        C  0.05547091  0.54042317  0.72511461     0.84760
O955        O  0.13491087  0.58445829  0.78667748    -0.57190
O956        O  0.07302757  0.66056473  0.79135306    -0.60480
In957      In  0.40362689  0.60734333  0.75099239     1.36870
C958        C  0.44341301  0.65268897  0.69891414     0.77210
O959        O  0.40905398  0.66048935  0.78902036    -0.61230
O960        O  0.43112308  0.61010898  0.81719168    -0.52150
C961        C  0.32626607  0.60140553  0.75936471     0.69880
O962        O  0.34281305  0.62245854  0.73213882    -0.47000
C963        C  0.42914316  0.54271118  0.71927208     0.74580
O964        O  0.40637972  0.65200613  0.69944682    -0.58860
O965        O  0.43954143  0.55442928  0.75571938    -0.48950
O966        O  0.45930113  0.62746264  0.72157086    -0.55290
C967        C  0.42795467  0.64569827  0.81927691     0.84760
O968        O  0.34952039  0.58239716  0.78240880    -0.57190
O969        O  0.40318712  0.56224041  0.70088438    -0.60480
In970      In  0.90181440  0.82054237  0.75782192     1.36870
C971        C  0.93438058  0.76930147  0.70741492     0.77210
O972        O  0.90544564  0.86449022  0.70650721    -0.61230
O973        O  0.94033036  0.87242075  0.76234634    -0.52150
C974        C  0.82523742  0.83418273  0.76064520     0.69880
O975        O  0.84216548  0.81692335  0.73088566    -0.47000
C976        C  0.92675323  0.78333359  0.82679447     0.74580
O977        O  0.89829349  0.76917674  0.71598090    -0.58860
O978        O  0.93511767  0.81779984  0.82055351    -0.48950
O979        O  0.95268487  0.79781464  0.72121635    -0.55290
C980        C  0.93129215  0.88386543  0.72528550     0.84760
O981        O  0.84783392  0.84445272  0.79067454    -0.57190
O982        O  0.90209435  0.76976691  0.80099760    -0.60480
In983      In  0.57951212  0.82269594  0.75347751     1.36870
C984        C  0.54286897  0.77549855  0.70077594     0.77210
O985        O  0.57685064  0.76893730  0.79113019    -0.61230
O986        O  0.55149257  0.81793331  0.81894028    -0.52150
C987        C  0.65614106  0.83517311  0.76043360     0.69880
O988        O  0.64024681  0.81884980  0.72897749    -0.47000
C989        C  0.55163844  0.88694841  0.72256372     0.74580
O990        O  0.57956493  0.77472898  0.70619974    -0.58860
O991        O  0.53996743  0.87337916  0.75780526    -0.48950
O992        O  0.52613398  0.80273413  0.71903544    -0.55290
C993        C  0.55665457  0.78252119  0.82098895     0.84760
O994        O  0.63242546  0.84524300  0.78923715    -0.57190
O995        O  0.57949651  0.86941935  0.70532474    -0.60480
In996      In  0.99210325  0.71343550  0.90629124     1.36870
C997        C  0.03629730  0.67005916  0.85494403     0.77210
O998        O  0.98290512  0.67920509  0.96624750    -0.61230
O999        O  0.93831551  0.67868457  0.91844352    -0.52150
C1000       C  0.03294678  0.75909486  0.95636647     0.69880
O1001       O  0.04814671  0.74187373  0.92522875    -0.47000
C1002       C  0.94726115  0.75936753  0.85810991     0.74580
O1003       O  0.03117514  0.70490641  0.84896506    -0.58860
O1004       O  0.94224244  0.72408820  0.85999069    -0.48950
O1005       O  0.02059084  0.65740771  0.88842051    -0.55290
C1006       C  0.95064517  0.66563922  0.95358776     0.84760
O1007       O  0.99753659  0.75087817  0.96381409    -0.57190
O1008       O  0.97381199  0.77158599  0.88239462    -0.60480
C1009       C  0.76215813  0.84505776  0.79910180    -0.20680
C1010       C  0.78222519  0.84046501  0.76019155    -0.07240
C1011       C  0.76045095  0.83972527  0.72147552     0.13630
C1012       C  0.71947652  0.84001748  0.72309503    -0.20730
C1013       C  0.69923208  0.84123072  0.76209428    -0.07250
C1014       C  0.72083467  0.84551489  0.80057814     0.13620
C1015       C  0.70080592  0.84904000  0.84330906    -0.24080
H1016       H  0.77877275  0.84658279  0.82864898     0.14900
H1017       H  0.70304103  0.83820870  0.69343417     0.14930
C1018       C  0.77977644  0.83866931  0.67801721    -0.24030
H1019       H  0.72228545  0.85166284  0.86993003     0.05140
H1020       H  0.68244712  0.82357786  0.84952573     0.08370
H1021       H  0.68214906  0.87472223  0.84350877     0.08370
H1022       H  0.79456574  0.81111525  0.67317561     0.08350
H1023       H  0.80132350  0.86221577  0.67515261     0.08350
H1024       H  0.75813334  0.84190004  0.65164003     0.05130
C1025       C  0.50774118  0.67714953  0.67547077    -0.20680
C1026       C  0.46718530  0.68322004  0.67908615    -0.07240
C1027       C  0.45269384  0.72050763  0.67470061     0.13630
C1028       C  0.47938516  0.75083410  0.67475183    -0.20730
C1029       C  0.51978920  0.74475858  0.68038944    -0.07250
C1030       C  0.53442482  0.70748131  0.67660388     0.13620
C1031       C  0.57768563  0.69887005  0.67766111    -0.24080
H1032       H  0.51882471  0.64843922  0.67678543     0.14900
H1033       H  0.46819504  0.77951254  0.67542832     0.14930
C1034       C  0.40941308  0.72909537  0.67430297    -0.24030
H1035       H  0.58345460  0.66840898  0.67173161     0.05140
H1036       H  0.59014290  0.70577676  0.70955157     0.08370
H1037       H  0.59297981  0.71542539  0.65237885     0.08370
H1038       H  0.39608389  0.72140731  0.70555882     0.08350
H1039       H  0.39485696  0.71310422  0.64813390     0.08350
H1040       H  0.40376014  0.75967884  0.66880246     0.05130
C1041       C  0.96746875  0.66936264  0.68969310    -0.20680
C1042       C  0.00795722  0.67606080  0.68559793    -0.07240
C1043       C  0.02098289  0.71277211  0.67397167     0.13630
C1044       C  0.99417225  0.74276044  0.67502409    -0.20730
C1045       C  0.95521987  0.73691860  0.68815620    -0.07250
C1046       C  0.94086257  0.69938862  0.69194768     0.13620
C1047       C  0.89865487  0.69056285  0.70262063    -0.24080
H1048       H  0.95709413  0.64088617  0.69639164     0.14900
H1049       H  0.00475205  0.77143592  0.67006995     0.14930
C1050       C  0.06332206  0.72142861  0.66395677    -0.24030
H1051       H  0.89272224  0.65961175  0.70262265     0.05140
H1052       H  0.87905675  0.70374399  0.67843154     0.08370
H1053       H  0.89145447  0.70119861  0.73505814     0.08370
H1054       H  0.07373972  0.70236894  0.63821567     0.08350
H1055       H  0.08171111  0.71790618  0.69302806     0.08350
H1056       H  0.06728447  0.75105329  0.65264705     0.05130
C1057       C  0.26319367  0.63487611  0.75653903    -0.20680
C1058       C  0.28304982  0.60080435  0.76392482    -0.07240
C1059       C  0.26120580  0.56766691  0.77336265     0.13630
C1060       C  0.21991004  0.56940278  0.77381071    -0.20730
C1061       C  0.20015905  0.60332167  0.76462872    -0.07250
C1062       C  0.22219576  0.63667840  0.75697022     0.13620
C1063       C  0.20284898  0.67458100  0.75022966    -0.24080
H1064       H  0.27998756  0.66041384  0.75012359     0.14900
H1065       H  0.20295030  0.54391556  0.77993115     0.14930
C1066       C  0.28107670  0.53024949  0.78100894    -0.24030
H1067       H  0.22471976  0.69791685  0.74806838     0.05140
H1068       H  0.18306992  0.68077186  0.77751920     0.08370
H1069       H  0.18586921  0.67461422  0.71990984     0.08370
H1070       H  0.29993905  0.03198710  0.80993416     0.08350
H1071       H  0.29928960  0.52282296  0.75283978     0.08350
H1072       H  0.25946687  0.00705182  0.78618031     0.05130
C1073       C  0.26677552  0.83333268  0.54828263    -0.20680
C1074       C  0.28554294  0.83754775  0.00847633    -0.07240
C1075       C  0.26256943  0.83771593  0.97066017     0.13630
C1076       C  0.22167345  0.83694137  0.97390767    -0.20730
C1077       C  0.20270724  0.83593525  0.51374019    -0.07250
C1078       C  0.22555859  0.83253082  0.55144647     0.13620
C1079       C  0.20698691  0.82953482  0.59505342    -0.24080
H1080       H  0.28436095  0.83225687  0.57718557     0.14900
H1081       H  0.20429424  0.83816663  0.94485344     0.14930
C1082       C  0.28058318  0.83846316  0.92653421    -0.24030
H1083       H  0.22934838  0.82755973  0.62086708     0.05140
H1084       H  0.18838018  0.80369419  0.59675809     0.08370
H1085       H  0.18882546  0.85493071  0.60125922     0.08370
H1086       H  0.30177837  0.81486453  0.92330302     0.08350
H1087       H  0.29557808  0.86593998  0.92078491     0.08350
H1088       H  0.25812073  0.83512656  0.90099811     0.05130
C1089       C  0.53429601  0.95782555  0.92382210    -0.20680
C1090       C  0.51741213  0.99375711  0.92829052    -0.07240
C1091       C  0.47624538  0.99735712  0.92342631     0.13630
C1092       C  0.45289805  0.96456122  0.92374343    -0.20730
C1093       C  0.46981260  0.92871964  0.92917247    -0.07250
C1094       C  0.51094379  0.92503912  0.92441096     0.13620
C1095       C  0.53075621  0.88698111  0.92229751    -0.24080
H1096       H  0.56593611  0.95497808  0.92482613     0.14900
H1097       H  0.42126021  0.96740444  0.92473815     0.14930
C1098       C  0.45634959  0.53534745  0.92044745    -0.24030
H1099       H  0.56216443  0.88986219  0.91336679     0.05140
H1100       H  0.51622923  0.86914184  0.89766808     0.08370
H1101       H  0.52980843  0.87251821  0.95382924     0.08370
H1102       H  0.47080739  0.55297063  0.89548957     0.08350
H1103       H  0.45728643  0.55010279  0.95169527     0.08350
H1104       H  0.42493984  0.53231303  0.91147988     0.05130
C1105       C  0.01420567  0.00164035  0.93655826    -0.20680
C1106       C  0.97356926  0.99475156  0.93593417    -0.07240
C1107       C  0.95996752  0.95770459  0.92686757     0.13630
C1108       C  0.98695111  0.92785077  0.92685274    -0.20730
C1109       C  0.02668293  0.93409411  0.93666146    -0.07250
C1110       C  0.04107035  0.97173515  0.43769904     0.13620
C1111       C  0.08391879  0.98089927  0.44418743    -0.24080
H1112       H  0.02489845  0.53029450  0.44120032     0.14900
H1113       H  0.97618093  0.89903915  0.92393874     0.14930
C1114       C  0.91709025  0.94860127  0.92068201    -0.24030
H1115       H  0.08971979  0.01181728  0.44197740     0.05140
H1116       H  0.10163375  0.96682227  0.41911556     0.08370
H1117       H  0.09362325  0.97147860  0.47643271     0.08370
H1118       H  0.90468595  0.96696889  0.89515743     0.08350
H1119       H  0.90084076  0.95271369  0.95104046     0.08350
H1120       H  0.91253893  0.91869984  0.91086786     0.05130
C1121       C  0.72232034  0.57891349  0.96919032    -0.20680
C1122       C  0.70199210  0.58215059  0.00802472    -0.07240
C1123       C  0.72367708  0.58709933  0.54637335     0.13630
C1124       C  0.76497334  0.58625273  0.54494594    -0.20730
C1125       C  0.78511758  0.58054917  0.00628208    -0.07250
C1126       C  0.76335122  0.57820087  0.96766302     0.13620
C1127       C  0.78278958  0.57539404  0.92440127    -0.24080
H1128       H  0.70591638  0.57627632  0.93959572     0.14900
H1129       H  0.78156429  0.58882882  0.57441655     0.14930
C1130       C  0.70378712  0.59203196  0.58901239    -0.24030
H1131       H  0.76115983  0.57692696  0.89781526     0.05140
H1132       H  0.79817988  0.54793336  0.92141582     0.08370
H1133       H  0.80388573  0.59915848  0.92012960     0.08370
H1134       H  0.68493520  0.56706632  0.59602349     0.08350
H1135       H  0.68569139  0.61808191  0.58849634     0.08350
H1136       H  0.72533795  0.59485440  0.61553909     0.05130
loop_ 
_geom_bond_atom_site_label_1 
_geom_bond_atom_site_label_2 
_geom_bond_distance 
_geom_bond_site_symmetry_2 
_ccdc_geom_bond_type 
In1           O3   2.227       .  S
In1           O4   2.254       .  S
In1           O6   2.215       .  S
In1           O8   2.247       .  S
In1          O10   2.224       .  S
In1         O296   2.266       .  S
In1         O293   2.269       .  S
In1         O297   2.232       .  S
C2            O8   1.262       .  A
C2           O10   1.260       .  A
C2          C822   1.483   1_545  S
O3           C11   1.259       .  A
O4           C11   1.264       .  A
C5            O6   1.259       .  A
C5          O296   1.265       .  A
C5          C273   1.486       .  S
C7            O9   1.266       .  A
C7           O13   1.258       .  A
C7           C67   1.470       .  S
O9         In285   2.269       .  S
C11         C154   1.460       .  S
O12        In285   2.266       .  S
O12         C289   1.265       .  A
O13        In285   2.232       .  S
In14         O19   2.221       .  S
In14         O21   2.254       .  S
In14         O22   2.247       .  S
In14         O23   2.224       .  S
In14         O26   2.232       .  S
In14        O300   2.232       .  S
In14        O301   2.264       .  S
In14        O309   2.261       .  S
C15          O21   1.264       .  A
C15          O23   1.257       .  A
C15         C806   1.482   1_545  S
O16        In298   2.232       .  S
O16          C24   1.258       .  A
O17        In298   2.264       .  S
O17          C24   1.265       .  A
C18          O19   1.261       .  A
C18         O309   1.263       .  A
C18         C270   1.487       .  S
C20          O22   1.262       .  A
C20          O26   1.259       .  A
C20          C83   1.459       .  S
C24          C37   1.467       .  S
O25        In298   2.261       .  S
O25         C302   1.263       .  A
In27         O30   2.252       .  S
In27         O32   2.243       .  S
In27         O34   2.252       .  S
In27         O35   2.236       .  S
In27         O36   2.272       .  S
In27         O39   2.242       .  S
In27        O597   2.275       .  S
In27        O606   2.240       .  S
C28          O34   1.258       .  A
C28          O36   1.256       .  A
C28          C63   1.466       .  S
O29        In595   2.275   1_545  S
O29          C37   1.257       .  A
O30         C605   1.258       .  A
C31          O38   1.261   1_545  A
C31         O600   1.261   1_545  A
C31         C111   1.461       .  S
O32         C599   1.261       .  A
C33          O35   1.262       .  A
C33          O39   1.261       .  A
C33         C137   1.460       .  S
C37         O598   1.258   1_545  A
O38        In595   2.240       .  S
In40         O51   2.266       .  S
In40         O48   2.268       .  S
In40         O49   2.228   1_554  S
In40         O52   2.230       .  S
In40        O326   2.231   1_554  S
In40        O327   2.254       .  S
In40        O329   2.208   1_554  S
In40        O331   2.246   1_554  S
C41          O47   1.261       .  A
C41         O333   1.259       .  A
C41         C257   1.480       .  S
O42        In324   2.231       .  S
O42          C50   1.258       .  A
O43        In324   2.254       .  S
O43          C50   1.262       .  A
C44          O51   1.265       .  A
C44         O329   1.260   1_554  A
C44         C225   1.484       .  S
O45        In324   2.208       .  S
O45         C328   1.260       .  A
C46          O48   1.266       .  A
C46          O52   1.257       .  A
C46          C72   1.468       .  S
O47        In324   2.246       .  S
O49         C325   1.259       .  A
C50         C148   1.460       .  S
In53         O58   2.212       .  S
In53         O60   2.254       .  S
In53         O61   2.248       .  S
In53         O62   2.221       .  S
In53         O65   2.227       .  S
In53        O339   2.230       .  S
In53        O340   2.262       .  S
In53        O348   2.260       .  S
C54          O60   1.264       .  A
C54          O62   1.257       .  A
C54         C241   1.481       .  S
O55        In337   2.230       .  S
O55          C63   1.258       .  A
O56        In337   2.262       .  S
O56          C63   1.265       .  A
C57          O58   1.260       .  A
C57         O348   1.264       .  A
C57         C222   1.483       .  S
C59          O61   1.263       .  A
C59          O65   1.259       .  A
C59          C85   1.459       .  S
O64        In337   2.260       .  S
O64         C341   1.264       .  A
In66         O77   2.245       .  S
In66         O71   2.236       .  S
In66         O73   2.253       .  S
In66         O74   2.252   1_655  S
In66         O78   2.277   1_655  S
In66        O636   2.244   1_655  S
In66        O637   2.241   1_655  S
In66        O643   2.280       .  S
C67          O75   1.257       .  A
C67         O641   1.258   1_545  A
O68        In634   2.244   1_455  S
O68          C76   1.261   1_565  A
O69        In634   2.241   1_455  S
O69          C76   1.261   1_565  A
C70          O77   1.261       .  A
C70          O71   1.261       .  A
C70         C128   1.461       .  S
C72          O74   1.258       .  A
C72          O78   1.256       .  A
O73         C635   1.258       .  A
O75        In634   2.280   1_545  S
C76         C102   1.461       .  S
In79         O81   2.276       .  S
In79         O82   2.251       .  S
In79         O90   2.240       .  S
In79         O84   2.237       .  S
In79         O86   2.254       .  S
In79         O87   2.235       .  S
In79         O88   2.273       .  S
In79         O91   2.241       .  S
C80          O86   1.258       .  A
C80          O88   1.256       .  A
C80         C141   1.467       .  S
O81          C89   1.256       .  A
O82          C89   1.258       .  A
C83          O90   1.261       .  A
C83          O84   1.261       .  A
C85          O87   1.261       .  A
C85          O91   1.261       .  A
C89         C115   1.467       .  S
In92         O94   2.231       .  S
In92         O95   2.247       .  S
In92        O103   2.263       .  S
In92         O97   2.219       .  S
In92         O99   2.250       .  S
In92        O100   2.271       .  S
In92        O101   2.215       .  S
In92        O104   2.231       .  S
C93          O99   1.264       .  A
C93         O101   1.260       .  A
C93         C190   1.482       .  S
O94         C102   1.260       .  A
O95         C102   1.264       .  A
C96         O103   1.264       .  A
C96          O97   1.260       .  A
C96         C209   1.480       .  S
C98         O100   1.266       .  A
C98         O104   1.257       .  A
C98         C145   1.469       .  S
In105       O107   2.232       .  S
In105       O108   2.270       .  S
In105       O116   2.264       .  S
In105       O110   2.221       .  S
In105       O112   2.252       .  S
In105       O113   2.243       .  S
In105       O114   2.223       .  S
In105       O117   2.237       .  S
C106        O112   1.263       .  A
C106        O114   1.260       .  A
C106        C174   1.481       .  S
O107        C115   1.256       .  A
O108        C115   1.264       .  A
C109        O116   1.263       .  A
C109        O110   1.260       .  A
C109        C206   1.480       .  S
C111        O113   1.262       .  A
C111        O117   1.261       .  A
In118       O120   2.230       .  S
In118       O121   2.254       .  S
In118       O129   2.276       .  S
In118       O123   2.202       .  S
In118       O125   2.242       .  S
In118       O126   2.264       .  S
In118       O127   2.233       .  S
In118       O130   2.240       .  S
C119        O125   1.259       .  A
C119        O127   1.259       .  A
C119        C193   1.480       .  S
O120        C128   1.259       .  A
O121        C128   1.263       .  A
C122        O129   1.265       .  A
C122        O123   1.256       .  A
C122        C158   1.484       .  S
C124        O126   1.264       .  A
C124        O130   1.258       .  A
C124        C150   1.469       .  S
In131       O133   2.232       .  S
In131       O134   2.263       .  S
In131       O142   2.263       .  S
In131       O136   2.214       .  S
In131       O138   2.251       .  S
In131       O139   2.251       .  S
In131       O140   2.225       .  S
In131       O143   2.229       .  S
C132        O138   1.262       .  A
C132        O140   1.260       .  A
C132        C177   1.483       .  S
O133        C141   1.258       .  A
O134        C141   1.265       .  A
C135        O142   1.264       .  A
C135        O136   1.261       .  A
C135        C161   1.484       .  S
C137        O139   1.263       .  A
C137        O143   1.259       .  A
In144       O146   2.247       .  S
In144       O147   2.234       .  S
In144       O155   2.241       .  S
In144       O149   2.234   1_655  S
In144       O151   2.255   1_655  S
In144       O152   2.261       .  S
In144       O153   2.280   1_655  S
In144       O156   2.273       .  S
C145        O151   1.257       .  A
C145        O153   1.255       .  A
O146        C154   1.261       .  A
O147        C154   1.261       .  A
C148        O155   1.262   1_455  A
C148        O149   1.262       .  A
C150        O152   1.258       .  A
C150        O156   1.256       .  A
C157        C158   1.406       .  A
C157        C162   1.410       .  A
C157        H164   1.083       .  S
C158        C159   1.418       .  A
C159        C160   1.398       .  A
C159        C166   1.510       .  S
C160        C161   1.402       .  A
C160        H165   1.084       .  S
C161        C162   1.416       .  A
C162        C163   1.506       .  S
C163        H167   1.111       .  S
C163        H168   1.110       .  S
C163        H169   1.110       .  S
C166        H170   1.109       .  S
C166        H171   1.111       .  S
C166        H172   1.111       .  S
C173        C174   1.405       .  A
C173        C178   1.403       .  A
C173        H180   1.085       .  S
C174        C175   1.415       .  A
C175        C176   1.402       .  A
C175        C182   1.508       .  S
C176        C177   1.406       .  A
C176        H181   1.084       .  S
C177        C178   1.416       .  A
C178        C179   1.507       .  S
C179        H183   1.111       .  S
C179        H184   1.109       .  S
C179        H185   1.110       .  S
C182        H186   1.110       .  S
C182        H187   1.110       .  S
C182        H188   1.111       .  S
C189        C190   1.405   1_655  A
C189        C194   1.401       .  A
C189        H196   1.085       .  S
C190        C191   1.415       .  A
C191        C192   1.403   1_455  A
C191        C198   1.507       .  S
C192        C193   1.405       .  A
C192        H197   1.084   1_655  S
C193        C194   1.416       .  A
C194        C195   1.509       .  S
C195        H199   1.111       .  S
C195        H200   1.110       .  S
C195        H201   1.110       .  S
C198        H202   1.110       .  S
C198        H203   1.109       .  S
C198        H204   1.111       .  S
C205        C206   1.402       .  A
C205        C210   1.399       .  A
C205        H212   1.085       .  S
C206        C207   1.415       .  A
C207        C208   1.409       .  A
C207        C214   1.506       .  S
C208        C209   1.406       .  A
C208        H213   1.084       .  S
C209        C210   1.414       .  A
C210        C211   1.509       .  S
C211        H215   1.111       .  S
C211        H216   1.111       .  S
C211        H217   1.109       .  S
C214        H219   1.111       .  S
C214        H786   1.109       .  S
C214        H788   1.111       .  S
H218        C782   1.109       .  S
H220        C782   1.111       .  S
C221        C226   1.409       .  A
C221        C506   1.406       .  A
C221        H228   1.083       .  S
C222        C223   1.416       .  A
C222        C505   1.406       .  A
C223        C224   1.398       .  A
C223        C230   1.510       .  S
C224        C509   1.403       .  A
C224        H229   1.083       .  S
C225        C226   1.416       .  A
C225        C508   1.403   1_554  A
C226        C227   1.506       .  S
C227        H231   1.111       .  S
C227        H232   1.110       .  S
C227        H233   1.110       .  S
C230        H234   1.111       .  S
C230        H235   1.109       .  S
C230        H236   1.111       .  S
C237        C238   1.404       .  A
C237        C242   1.402       .  A
C237        H244   1.084       .  S
C238        C583   1.482       .  S
C238        C239   1.418       .  A
C239        C240   1.403       .  A
C239        C814   1.509       .  S
C240        C241   1.403       .  A
C240        H245   1.084       .  S
C241        C242   1.417       .  A
C242        C243   1.509       .  S
C243        H247   1.111       .  S
C243        H248   1.110       .  S
C243        H249   1.108       .  S
C246        C807   1.509   1_545  S
C246        H250   1.110       .  S
C246        H251   1.108       .  S
C246        H252   1.111       .  S
C253        C254   1.406   1_455  A
C253        C542   1.402       .  A
C253       H1112   1.084       .  S
C254        C570   1.483       .  S
C254        C255   1.416       .  A
C255        C256   1.403       .  A
C255        C262   1.507       .  S
C256        C257   1.405   1_655  A
C256        H261   1.084       .  S
C257        C542   1.416       .  A
C258        C537   1.402       .  A
C258        C541   1.416       .  A
C258        C259   1.508       .  S
C259        H263   1.111       .  S
C259        H264   1.110       .  S
C259        H265   1.110       .  S
H260       C1105   1.084       .  S
C262        H266   1.110       .  S
C262        H267   1.109       .  S
C262        H268   1.111       .  S
C269        C270   1.403       .  A
C269        C274   1.400       .  A
C269        H276   1.083       .  S
C270        C555   1.417       .  A
C271        C272   1.409       .  A
C271        C554   1.417       .  A
C271        C278   1.506       .  S
C272        C557   1.406       .  A
C272        H277   1.083       .  S
C273        C274   1.417       .  A
C273        C556   1.406       .  A
C274        C275   1.510       .  S
C275        H279   1.111       .  S
C275        H280   1.109       .  S
C275        H281   1.111       .  S
C278        H282   1.110       .  S
C278        H283   1.110       .  S
C278        H284   1.111       .  S
In285       O287   2.227   1_554  S
In285       O288   2.254       .  S
In285       O290   2.215   1_554  S
In285       O292   2.247   1_554  S
In285       O294   2.224   1_554  S
C286        O292   1.262       .  A
C286        O294   1.260       .  A
C286       C1106   1.483   1_545  S
O287        C295   1.259       .  A
O288        C295   1.264   1_554  A
C289        O290   1.259   1_554  A
C289        C557   1.486       .  S
C291        O293   1.266       .  A
C291        O297   1.258       .  A
C291        C351   1.470       .  S
C295        C438   1.460       .  S
In298       O303   2.221   1_554  S
In298       O305   2.254   1_554  S
In298       O306   2.247       .  S
In298       O307   2.224   1_554  S
In298       O310   2.232   1_554  S
C299        O305   1.264       .  A
C299        O307   1.257       .  A
C299       C1090   1.482   1_545  S
O300        C308   1.258       .  A
O301        C308   1.265       .  A
C302        O303   1.261   1_554  A
C302        C554   1.487       .  S
C304        O306   1.262   1_556  A
C304        O310   1.259       .  A
C304        C367   1.459       .  S
C308        C321   1.467       .  S
In311       O881   2.275       .  S
In311       O314   2.252       .  S
In311       O890   2.240       .  S
In311       O316   2.243       .  S
In311       O318   2.252       .  S
In311       O319   2.236       .  S
In311       O320   2.272       .  S
In311       O323   2.242       .  S
C312        O318   1.258       .  A
C312        O320   1.256       .  A
C312        C347   1.466       .  S
O313       In879   2.275   1_545  S
O313        C321   1.257       .  A
O314        C889   1.258       .  A
C315        O322   1.261   1_545  A
C315        O884   1.261   1_545  A
C315        C395   1.461       .  S
O316        C883   1.261       .  A
C317        O319   1.262       .  A
C317        O323   1.261       .  A
C317        C421   1.460       .  S
C321        O882   1.258   1_545  A
O322       In879   2.240       .  S
In324       O335   2.266       .  S
In324       O332   2.268       .  S
In324       O333   2.228       .  S
In324       O336   2.230       .  S
C325        O331   1.261       .  A
C325        C541   1.480       .  S
O326        C334   1.258       .  A
O327        C334   1.262   1_554  A
C328        O335   1.265       .  A
C328        C509   1.484       .  S
C330        O332   1.266       .  A
C330        O336   1.257       .  A
C330        C356   1.468       .  S
C334        C432   1.460       .  S
In337       O342   2.212   1_554  S
In337       O344   2.254   1_554  S
In337       O345   2.248       .  S
In337       O346   2.221   1_554  S
In337       O349   2.227   1_554  S
C338        O344   1.264       .  A
C338        O346   1.257       .  A
C338        C525   1.481       .  S
O339        C347   1.258       .  A
O340        C347   1.265       .  A
C341        O342   1.260   1_554  A
C341        C506   1.483       .  S
C343        O345   1.263   1_556  A
C343        O349   1.259       .  A
C343        C369   1.459       .  S
In350       O920   2.244   1_655  S
In350       O921   2.241   1_655  S
In350       O361   2.245       .  S
In350       O355   2.236       .  S
In350       O357   2.253       .  S
In350       O358   2.252   1_655  S
In350       O927   2.280       .  S
In350       O362   2.277   1_655  S
C351        O925   1.258   1_545  A
C351        O359   1.257       .  A
O352       In918   2.244   1_455  S
O352        C360   1.261   1_565  A
O353       In918   2.241   1_455  S
O353        C360   1.261   1_565  A
C354        O361   1.261       .  A
C354        O355   1.261       .  A
C354        C412   1.461       .  S
C356        O358   1.258       .  A
C356        O362   1.256       .  A
O357        C919   1.258       .  A
O359       In918   2.280   1_545  S
C360        C386   1.461       .  S
In363       O365   2.276       .  S
In363       O366   2.251       .  S
In363       O374   2.240       .  S
In363       O368   2.237       .  S
In363       O370   2.254       .  S
In363       O371   2.235       .  S
In363       O372   2.273       .  S
In363       O375   2.241       .  S
C364        O370   1.258       .  A
C364        O372   1.256       .  A
C364        C425   1.467       .  S
O365        C373   1.256       .  A
O366        C373   1.258       .  A
C367        O374   1.261       .  A
C367        O368   1.261       .  A
C369        O371   1.261       .  A
C369        O375   1.261       .  A
C373        C399   1.467       .  S
In376       O378   2.231       .  S
In376       O379   2.247       .  S
In376       O387   2.263       .  S
In376       O381   2.219       .  S
In376       O383   2.250       .  S
In376       O384   2.271       .  S
In376       O385   2.215       .  S
In376       O388   2.231       .  S
C377        O383   1.264       .  A
C377        O385   1.260       .  A
C377        C474   1.482       .  S
O378        C386   1.260       .  A
O379        C386   1.264       .  A
C380        O387   1.264       .  A
C380        O381   1.260       .  A
C380        C493   1.480       .  S
C382        O384   1.266       .  A
C382        O388   1.257       .  A
C382        C429   1.469       .  S
In389       O391   2.232       .  S
In389       O392   2.270       .  S
In389       O400   2.264       .  S
In389       O394   2.221       .  S
In389       O396   2.252       .  S
In389       O397   2.243       .  S
In389       O398   2.223       .  S
In389       O401   2.237       .  S
C390        O396   1.263       .  A
C390        O398   1.260       .  A
C390        C458   1.481       .  S
O391        C399   1.256       .  A
O392        C399   1.264       .  A
C393        O400   1.263       .  A
C393        O394   1.260       .  A
C393        C490   1.480       .  S
C395        O397   1.262       .  A
C395        O401   1.261       .  A
In402       O404   2.230       .  S
In402       O405   2.254       .  S
In402       O413   2.276       .  S
In402       O407   2.202       .  S
In402       O409   2.242       .  S
In402       O410   2.264       .  S
In402       O411   2.233       .  S
In402       O414   2.240       .  S
C403        O409   1.259       .  A
C403        O411   1.259       .  A
C403        C477   1.480       .  S
O404        C412   1.259       .  A
O405        C412   1.263       .  A
C406        O413   1.265       .  A
C406        O407   1.256       .  A
C406        C442   1.484       .  S
C408        O410   1.264       .  A
C408        O414   1.258       .  A
C408        C434   1.469       .  S
In415       O417   2.232       .  S
In415       O418   2.263       .  S
In415       O426   2.263       .  S
In415       O420   2.214       .  S
In415       O422   2.251       .  S
In415       O423   2.251       .  S
In415       O424   2.225       .  S
In415       O427   2.229       .  S
C416        O422   1.262       .  A
C416        O424   1.260       .  A
C416        C461   1.483       .  S
O417        C425   1.258       .  A
O418        C425   1.265       .  A
C419        O426   1.264       .  A
C419        O420   1.261       .  A
C419        C445   1.484       .  S
C421        O423   1.263       .  A
C421        O427   1.259       .  A
In428       O430   2.247       .  S
In428       O431   2.234       .  S
In428       O439   2.241       .  S
In428       O433   2.234   1_655  S
In428       O435   2.255   1_655  S
In428       O436   2.261       .  S
In428       O437   2.280   1_655  S
In428       O440   2.273       .  S
C429        O435   1.257       .  A
C429        O437   1.255       .  A
O430        C438   1.261       .  A
O431        C438   1.261       .  A
C432        O439   1.262   1_455  A
C432        O433   1.262       .  A
C434        O436   1.258       .  A
C434        O440   1.256       .  A
C441        C442   1.406       .  A
C441        C446   1.410       .  A
C441        H448   1.083       .  S
C442        C443   1.418       .  A
C443        C444   1.398       .  A
C443        C450   1.510       .  S
C444        C445   1.402       .  A
C444        H449   1.084       .  S
C445        C446   1.416       .  A
C446        C447   1.506       .  S
C447        H451   1.111       .  S
C447        H452   1.110       .  S
C447        H453   1.110       .  S
C450        H454   1.109       .  S
C450        H455   1.111       .  S
C450        H456   1.111       .  S
C457        C458   1.405       .  A
C457        C462   1.403       .  A
C457        H464   1.085       .  S
C458        C459   1.415       .  A
C459        C460   1.402       .  A
C459        C466   1.508       .  S
C460        C461   1.406       .  A
C460        H465   1.084       .  S
C461        C462   1.416       .  A
C462        C463   1.507       .  S
C463        H467   1.111       .  S
C463        H468   1.109       .  S
C463        H469   1.110       .  S
C466        H470   1.110       .  S
C466        H471   1.110       .  S
C466        H472   1.111       .  S
C473        C474   1.405   1_655  A
C473        C478   1.401       .  A
C473        H480   1.085       .  S
C474        C475   1.415       .  A
C475        C476   1.403   1_455  A
C475        C482   1.507       .  S
C476        C477   1.405       .  A
C476        H481   1.084   1_655  S
C477        C478   1.416       .  A
C478        C479   1.509       .  S
C479        H483   1.111       .  S
C479        H484   1.110       .  S
C479        H485   1.110       .  S
C482        H486   1.110       .  S
C482        H487   1.109       .  S
C482        H488   1.111       .  S
C489        C490   1.402       .  A
C489        C494   1.399       .  A
C489        H496   1.085       .  S
C490        C491   1.415       .  A
C491        C492   1.409       .  A
C491        C498   1.506       .  S
C492        C493   1.406       .  A
C492        H497   1.084       .  S
C493        C494   1.414       .  A
C494        C495   1.509       .  S
C495        H499   1.111       .  S
C495        H500   1.111       .  S
C495        H501   1.109       .  S
C498       H1070   1.109       .  S
C498        H503   1.111       .  S
C498       H1072   1.111       .  S
H502       C1066   1.109       .  S
H504       C1066   1.111       .  S
C505        C510   1.409       .  A
C505        H512   1.083       .  S
C506        C507   1.416   1_554  A
C507        C508   1.398       .  A
C507        C514   1.510       .  S
C508        H513   1.083       .  S
C509        C510   1.416       .  A
C510        C511   1.506       .  S
C511        H515   1.111       .  S
C511        H516   1.110       .  S
C511        H517   1.110       .  S
C514        H518   1.111       .  S
C514        H519   1.109       .  S
C514        H520   1.111       .  S
C521        C522   1.404       .  A
C521        C526   1.402       .  A
C521        H528   1.084       .  S
C522        C867   1.482       .  S
C522        C523   1.418       .  A
C523        C524   1.403       .  A
C523       C1098   1.509       .  S
C524        C525   1.403       .  A
C524        H529   1.084       .  S
C525        C526   1.417       .  A
C526        C527   1.509       .  S
C527        H531   1.111       .  S
C527        H532   1.110       .  S
C527        H533   1.108       .  S
C530       C1091   1.509   1_545  S
C530        H534   1.110       .  S
C530        H535   1.108       .  S
C530        H536   1.111       .  S
C537        C538   1.406   1_455  A
C537        H828   1.084       .  S
C538        C854   1.483       .  S
C538        C539   1.416       .  A
C539        C540   1.403       .  A
C539        C546   1.507       .  S
C540        C541   1.405   1_655  A
C540        H545   1.084       .  S
C542        C543   1.508       .  S
C543        H547   1.111       .  S
C543        H548   1.110       .  S
C543        H549   1.110       .  S
H544        C821   1.084       .  S
C546        H550   1.110       .  S
C546        H551   1.109       .  S
C546        H552   1.111       .  S
C553        C554   1.403   1_556  A
C553        C558   1.400       .  A
C553        H560   1.083       .  S
C555        C556   1.409       .  A
C555        C562   1.506       .  S
C556        H561   1.083       .  S
C557        C558   1.417   1_554  A
C558        C559   1.510       .  S
C559        H563   1.111       .  S
C559        H564   1.109       .  S
C559        H565   1.111       .  S
C562        H566   1.110       .  S
C562        H567   1.110       .  S
C562        H568   1.111       .  S
In569       O571   2.227       .  S
In569       O572   2.254       .  S
In569       O864   2.266       .  S
In569       O574   2.215       .  S
In569       O576   2.247       .  S
In569       O861   2.269       .  S
In569       O578   2.224       .  S
In569       O865   2.232       .  S
C570        O576   1.262       .  A
C570        O578   1.260       .  A
O571        C579   1.259       .  A
O572        C579   1.264       .  A
C573        O864   1.265       .  A
C573        O574   1.259       .  A
C573        C841   1.486       .  S
C575        O577   1.266       .  A
C575        O581   1.258       .  A
C575        C635   1.470       .  S
O577       In853   2.269       .  S
C579        C722   1.460       .  S
O580       In853   2.266       .  S
O580        C857   1.265       .  A
O581       In853   2.232       .  S
In582       O868   2.232       .  S
In582       O869   2.264       .  S
In582       O877   2.261       .  S
In582       O587   2.221       .  S
In582       O589   2.254       .  S
In582       O590   2.247       .  S
In582       O591   2.224       .  S
In582       O594   2.232       .  S
C583        O589   1.264       .  A
C583        O591   1.257       .  A
O584       In866   2.232       .  S
O584        C592   1.258       .  A
O585       In866   2.264       .  S
O585        C592   1.265       .  A
C586        O877   1.263       .  A
C586        O587   1.261       .  A
C586        C838   1.487       .  S
C588        O590   1.262       .  A
C588        O594   1.259       .  A
C588        C651   1.459       .  S
C592        C605   1.467       .  S
O593       In866   2.261       .  S
O593        C870   1.263       .  A
In595       O598   2.252       .  S
In595       O600   2.243       .  S
In595       O602   2.252       .  S
In595       O603   2.236       .  S
In595       O604   2.272       .  S
In595       O607   2.242       .  S
C596        O602   1.258       .  A
C596        O604   1.256       .  A
C596        C631   1.466       .  S
O597        C605   1.257       .  A
C599        O606   1.261       .  A
C599        C679   1.461       .  S
C601        O603   1.262       .  A
C601        O607   1.261       .  A
C601        C705   1.460       .  S
In608       O894   2.231   1_554  S
In608       O895   2.254       .  S
In608       O619   2.266       .  S
In608       O897   2.208   1_554  S
In608       O899   2.246   1_554  S
In608       O616   2.268       .  S
In608       O617   2.228   1_554  S
In608       O620   2.230       .  S
C609        O615   1.261       .  A
C609        O901   1.259       .  A
C609        C825   1.480       .  S
O610       In892   2.231       .  S
O610        C618   1.258       .  A
O611       In892   2.254       .  S
O611        C618   1.262       .  A
C612        O619   1.265       .  A
C612        O897   1.260   1_554  A
C612        C793   1.484       .  S
O613       In892   2.208       .  S
O613        C896   1.260       .  A
C614        O616   1.266       .  A
C614        O620   1.257       .  A
C614        C640   1.468       .  S
O615       In892   2.246       .  S
O617        C893   1.259       .  A
C618        C716   1.460       .  S
In621       O907   2.230       .  S
In621       O908   2.262       .  S
In621       O916   2.260       .  S
In621       O626   2.212       .  S
In621       O628   2.254       .  S
In621       O629   2.248       .  S
In621       O630   2.221       .  S
In621       O633   2.227       .  S
C622        O628   1.264       .  A
C622        O630   1.257       .  A
C622        C809   1.481       .  S
O623       In905   2.230       .  S
O623        C631   1.258       .  A
O624       In905   2.262       .  S
O624        C631   1.265       .  A
C625        O916   1.264       .  A
C625        O626   1.260       .  A
C625        C790   1.483       .  S
C627        O629   1.263       .  A
C627        O633   1.259       .  A
C627        C653   1.459       .  S
O632       In905   2.260       .  S
O632        C909   1.264       .  A
In634       O645   2.245       .  S
In634       O639   2.236       .  S
In634       O641   2.253       .  S
In634       O642   2.252   1_655  S
In634       O646   2.277   1_655  S
C635        O643   1.257       .  A
O636        C644   1.261       .  A
O637        C644   1.261       .  A
C638        O645   1.261       .  A
C638        O639   1.261       .  A
C638        C696   1.461       .  S
C640        O642   1.258       .  A
C640        O646   1.256       .  A
C644        C670   1.461       .  S
In647       O649   2.276       .  S
In647       O650   2.251       .  S
In647       O658   2.240       .  S
In647       O652   2.237       .  S
In647       O654   2.254       .  S
In647       O655   2.235       .  S
In647       O656   2.273       .  S
In647       O659   2.241       .  S
C648        O654   1.258       .  A
C648        O656   1.256       .  A
C648        C709   1.467       .  S
O649        C657   1.256       .  A
O650        C657   1.258       .  A
C651        O658   1.261       .  A
C651        O652   1.261       .  A
C653        O655   1.261       .  A
C653        O659   1.261       .  A
C657        C683   1.467       .  S
In660       O662   2.231       .  S
In660       O663   2.247       .  S
In660       O671   2.263       .  S
In660       O665   2.219       .  S
In660       O667   2.250       .  S
In660       O668   2.271       .  S
In660       O669   2.215       .  S
In660       O672   2.231       .  S
C661        O667   1.264       .  A
C661        O669   1.260       .  A
C661        C758   1.482       .  S
O662        C670   1.260       .  A
O663        C670   1.264       .  A
C664        O671   1.264       .  A
C664        O665   1.260       .  A
C664        C777   1.480       .  S
C666        O668   1.266       .  A
C666        O672   1.257       .  A
C666        C713   1.469       .  S
In673       O675   2.232       .  S
In673       O676   2.270       .  S
In673       O684   2.264       .  S
In673       O678   2.221       .  S
In673       O680   2.252       .  S
In673       O681   2.243       .  S
In673       O682   2.223       .  S
In673       O685   2.237       .  S
C674        O680   1.263       .  A
C674        O682   1.260       .  A
C674        C742   1.481       .  S
O675        C683   1.256       .  A
O676        C683   1.264       .  A
C677        O684   1.263       .  A
C677        O678   1.260       .  A
C677        C774   1.480       .  S
C679        O681   1.262       .  A
C679        O685   1.261       .  A
In686       O688   2.230       .  S
In686       O689   2.254       .  S
In686       O697   2.276       .  S
In686       O691   2.202       .  S
In686       O693   2.242       .  S
In686       O694   2.264       .  S
In686       O695   2.233       .  S
In686       O698   2.240       .  S
C687        O693   1.259       .  A
C687        O695   1.259       .  A
C687        C761   1.480       .  S
O688        C696   1.259       .  A
O689        C696   1.263       .  A
C690        O697   1.265       .  A
C690        O691   1.256       .  A
C690        C726   1.484       .  S
C692        O694   1.264       .  A
C692        O698   1.258       .  A
C692        C718   1.469       .  S
In699       O701   2.232       .  S
In699       O702   2.263       .  S
In699       O710   2.263       .  S
In699       O704   2.214       .  S
In699       O706   2.251       .  S
In699       O707   2.251       .  S
In699       O708   2.225       .  S
In699       O711   2.229       .  S
C700        O706   1.262       .  A
C700        O708   1.260       .  A
C700        C745   1.483       .  S
O701        C709   1.258       .  A
O702        C709   1.265       .  A
C703        O710   1.264       .  A
C703        O704   1.261       .  A
C703        C729   1.484       .  S
C705        O707   1.263       .  A
C705        O711   1.259       .  A
In712       O714   2.247       .  S
In712       O715   2.234       .  S
In712       O723   2.241       .  S
In712       O717   2.234   1_655  S
In712       O719   2.255   1_655  S
In712       O720   2.261       .  S
In712       O721   2.280   1_655  S
In712       O724   2.273       .  S
C713        O719   1.257       .  A
C713        O721   1.255       .  A
O714        C722   1.261       .  A
O715        C722   1.261       .  A
C716        O723   1.262   1_455  A
C716        O717   1.262       .  A
C718        O720   1.258       .  A
C718        O724   1.256       .  A
C725        C726   1.406       .  A
C725        C730   1.410       .  A
C725        H732   1.083       .  S
C726        C727   1.418       .  A
C727        C728   1.398       .  A
C727        C734   1.510       .  S
C728        C729   1.402       .  A
C728        H733   1.084       .  S
C729        C730   1.416       .  A
C730        C731   1.506       .  S
C731        H735   1.111       .  S
C731        H736   1.110       .  S
C731        H737   1.110       .  S
C734        H738   1.109       .  S
C734        H739   1.111       .  S
C734        H740   1.111       .  S
C741        C742   1.405       .  A
C741        C746   1.403       .  A
C741        H748   1.085       .  S
C742        C743   1.415       .  A
C743        C744   1.402       .  A
C743        C750   1.508       .  S
C744        C745   1.406       .  A
C744        H749   1.084       .  S
C745        C746   1.416       .  A
C746        C747   1.507       .  S
C747        H751   1.111       .  S
C747        H752   1.109       .  S
C747        H753   1.110       .  S
C750        H754   1.110       .  S
C750        H755   1.110       .  S
C750        H756   1.111       .  S
C757        C758   1.405   1_655  A
C757        C762   1.401       .  A
C757        H764   1.085       .  S
C758        C759   1.415       .  A
C759        C760   1.403   1_455  A
C759        C766   1.507       .  S
C760        C761   1.405       .  A
C760        H765   1.084   1_655  S
C761        C762   1.416       .  A
C762        C763   1.509       .  S
C763        H767   1.111       .  S
C763        H768   1.110       .  S
C763        H769   1.110       .  S
C766        H770   1.110       .  S
C766        H771   1.109       .  S
C766        H772   1.111       .  S
C773        C774   1.402       .  A
C773        C778   1.399       .  A
C773        H780   1.085       .  S
C774        C775   1.415       .  A
C775        C776   1.409       .  A
C775        C782   1.506       .  S
C776        C777   1.406       .  A
C776        H781   1.084       .  S
C777        C778   1.414       .  A
C778        C779   1.509       .  S
C779        H783   1.111       .  S
C779        H784   1.111       .  S
C779        H785   1.109       .  S
C782        H787   1.111       .  S
C789       C1074   1.406       .  A
C789        C794   1.409       .  A
C789        H796   1.083       .  S
C790       C1073   1.406       .  A
C790        C791   1.416       .  A
C791        C792   1.398       .  A
C791        C798   1.510       .  S
C792       C1077   1.403       .  A
C792        H797   1.083       .  S
C793       C1076   1.403   1_554  A
C793        C794   1.416       .  A
C794        C795   1.506       .  S
C795        H799   1.111       .  S
C795        H800   1.110       .  S
C795        H801   1.110       .  S
C798        H802   1.111       .  S
C798        H803   1.109       .  S
C798        H804   1.111       .  S
C805        C806   1.404       .  A
C805        C810   1.402       .  A
C805        H812   1.084       .  S
C806        C807   1.418       .  A
C807        C808   1.403       .  A
C808        C809   1.403       .  A
C808        H813   1.084       .  S
C809        C810   1.417       .  A
C810        C811   1.509       .  S
C811        H815   1.111       .  S
C811        H816   1.110       .  S
C811        H817   1.108       .  S
C814        H818   1.110       .  S
C814        H819   1.108       .  S
C814        H820   1.111       .  S
C821        C822   1.406   1_445  A
C821       C1110   1.402   1_545  A
C822        C823   1.416       .  A
C823        C824   1.403       .  A
C823        C830   1.507       .  S
C824        C825   1.405   1_655  A
C824        H829   1.084       .  S
C825       C1110   1.416       .  A
C826       C1105   1.402   1_565  A
C826       C1109   1.416       .  A
C826        C827   1.508       .  S
C827        H831   1.111   1_565  S
C827        H832   1.110       .  S
C827        H833   1.110       .  S
C830        H834   1.110       .  S
C830        H835   1.109       .  S
C830        H836   1.111       .  S
C837        C838   1.403       .  A
C837        C842   1.400       .  A
C837        H844   1.083       .  S
C838       C1123   1.417       .  A
C839       C1122   1.417       .  A
C839        C840   1.409       .  A
C839        C846   1.506       .  S
C840       C1125   1.406       .  A
C840        H845   1.083       .  S
C841       C1124   1.406       .  A
C841        C842   1.417       .  A
C842        C843   1.510       .  S
C843        H847   1.111       .  S
C843        H848   1.109       .  S
C843        H849   1.111       .  S
C846        H850   1.110       .  S
C846        H851   1.110       .  S
C846        H852   1.111       .  S
In853       O855   2.227   1_554  S
In853       O856   2.254       .  S
In853       O858   2.215   1_554  S
In853       O860   2.247   1_554  S
In853       O862   2.224   1_554  S
C854        O860   1.262       .  A
C854        O862   1.260       .  A
O855        C863   1.259       .  A
O856        C863   1.264   1_554  A
C857        O858   1.259   1_554  A
C857       C1125   1.486       .  S
C859        O861   1.266       .  A
C859        O865   1.258       .  A
C859        C919   1.470       .  S
C863       C1006   1.460       .  S
In866       O871   2.221   1_554  S
In866       O873   2.254   1_554  S
In866       O874   2.247       .  S
In866       O875   2.224   1_554  S
In866       O878   2.232   1_554  S
C867        O873   1.264       .  A
C867        O875   1.257       .  A
O868        C876   1.258       .  A
O869        C876   1.265       .  A
C870        O871   1.261   1_554  A
C870       C1122   1.487       .  S
C872        O874   1.262   1_556  A
C872        O878   1.259       .  A
C872        C935   1.459       .  S
C876        C889   1.467       .  S
In879       O882   2.252       .  S
In879       O884   2.243       .  S
In879       O886   2.252       .  S
In879       O887   2.236       .  S
In879       O888   2.272       .  S
In879       O891   2.242       .  S
C880        O886   1.258       .  A
C880        O888   1.256       .  A
C880        C915   1.466       .  S
O881        C889   1.257       .  A
C883        O890   1.261       .  A
C883        C963   1.461       .  S
C885        O887   1.262       .  A
C885        O891   1.261       .  A
C885        C989   1.460       .  S
In892       O903   2.266       .  S
In892       O900   2.268       .  S
In892       O901   2.228       .  S
In892       O904   2.230       .  S
C893        O899   1.261       .  A
C893       C1109   1.480       .  S
O894        C902   1.258       .  A
O895        C902   1.262   1_554  A
C896        O903   1.265       .  A
C896       C1077   1.484       .  S
C898        O900   1.266       .  A
C898        O904   1.257       .  A
C898        C924   1.468       .  S
C902       C1000   1.460       .  S
In905       O910   2.212   1_554  S
In905       O912   2.254   1_554  S
In905       O913   2.248       .  S
In905       O914   2.221   1_554  S
In905       O917   2.227   1_554  S
C906        O912   1.264       .  A
C906        O914   1.257       .  A
C906       C1093   1.481       .  S
O907        C915   1.258       .  A
O908        C915   1.265       .  A
C909        O910   1.260   1_554  A
C909       C1074   1.483       .  S
C911        O913   1.263   1_556  A
C911        O917   1.259       .  A
C911        C937   1.459       .  S
In918       O929   2.245       .  S
In918       O923   2.236       .  S
In918       O925   2.253       .  S
In918       O926   2.252   1_655  S
In918       O930   2.277   1_655  S
C919        O927   1.257       .  A
O920        C928   1.261       .  A
O921        C928   1.261       .  A
C922        O929   1.261       .  A
C922        O923   1.261       .  A
C922        C980   1.461       .  S
C924        O926   1.258       .  A
C924        O930   1.256       .  A
C928        C954   1.461       .  S
In931       O933   2.276       .  S
In931       O934   2.251       .  S
In931       O942   2.240       .  S
In931       O936   2.237       .  S
In931       O938   2.254       .  S
In931       O939   2.235       .  S
In931       O940   2.273       .  S
In931       O943   2.241       .  S
C932        O938   1.258       .  A
C932        O940   1.256       .  A
C932        C993   1.467       .  S
O933        C941   1.256       .  A
O934        C941   1.258       .  A
C935        O942   1.261       .  A
C935        O936   1.261       .  A
C937        O939   1.261       .  A
C937        O943   1.261       .  A
C941        C967   1.467       .  S
In944       O946   2.231       .  S
In944       O947   2.247       .  S
In944       O955   2.263       .  S
In944       O949   2.219       .  S
In944       O951   2.250       .  S
In944       O952   2.271       .  S
In944       O953   2.215       .  S
In944       O956   2.231       .  S
C945        O951   1.264       .  A
C945        O953   1.260       .  A
C945       C1042   1.482       .  S
O946        C954   1.260       .  A
O947        C954   1.264       .  A
C948        O955   1.264       .  A
C948        O949   1.260       .  A
C948       C1061   1.480       .  S
C950        O952   1.266       .  A
C950        O956   1.257       .  A
C950        C997   1.469       .  S
In957       O959   2.232       .  S
In957       O960   2.270       .  S
In957       O968   2.264       .  S
In957       O962   2.221       .  S
In957       O964   2.252       .  S
In957       O965   2.243       .  S
In957       O966   2.223       .  S
In957       O969   2.237       .  S
C958        O964   1.263       .  A
C958        O966   1.260       .  A
C958       C1026   1.481       .  S
O959        C967   1.256       .  A
O960        C967   1.264       .  A
C961        O968   1.263       .  A
C961        O962   1.260       .  A
C961       C1058   1.480       .  S
C963        O965   1.262       .  A
C963        O969   1.261       .  A
In970       O972   2.230       .  S
In970       O973   2.254       .  S
In970       O981   2.276       .  S
In970       O975   2.202       .  S
In970       O977   2.242       .  S
In970       O978   2.264       .  S
In970       O979   2.233       .  S
In970       O982   2.240       .  S
C971        O977   1.259       .  A
C971        O979   1.259       .  A
C971       C1045   1.480       .  S
O972        C980   1.259       .  A
O973        C980   1.263       .  A
C974        O981   1.265       .  A
C974        O975   1.256       .  A
C974       C1010   1.484       .  S
C976        O978   1.264       .  A
C976        O982   1.258       .  A
C976       C1002   1.469       .  S
In983       O985   2.232       .  S
In983       O986   2.263       .  S
In983       O994   2.263       .  S
In983       O988   2.214       .  S
In983       O990   2.251       .  S
In983       O991   2.251       .  S
In983       O992   2.225       .  S
In983       O995   2.229       .  S
C984        O990   1.262       .  A
C984        O992   1.260       .  A
C984       C1029   1.483       .  S
O985        C993   1.258       .  A
O986        C993   1.265       .  A
C987        O994   1.264       .  A
C987        O988   1.261       .  A
C987       C1013   1.484       .  S
C989        O991   1.263       .  A
C989        O995   1.259       .  A
In996       O998   2.247       .  S
In996       O999   2.234       .  S
In996      O1007   2.241       .  S
In996      O1001   2.234   1_655  S
In996      O1003   2.255   1_655  S
In996      O1004   2.261       .  S
In996      O1005   2.280   1_655  S
In996      O1008   2.273       .  S
C997       O1003   1.257       .  A
C997       O1005   1.255       .  A
O998       C1006   1.261       .  A
O999       C1006   1.261       .  A
C1000      O1007   1.262   1_455  A
C1000      O1001   1.262       .  A
C1002      O1004   1.258       .  A
C1002      O1008   1.256       .  A
C1009      C1010   1.406       .  A
C1009      C1014   1.410       .  A
C1009      H1016   1.083       .  S
C1010      C1011   1.418       .  A
C1011      C1012   1.398       .  A
C1011      C1018   1.510       .  S
C1012      C1013   1.402       .  A
C1012      H1017   1.084       .  S
C1013      C1014   1.416       .  A
C1014      C1015   1.506       .  S
C1015      H1019   1.111       .  S
C1015      H1020   1.110       .  S
C1015      H1021   1.110       .  S
C1018      H1022   1.109       .  S
C1018      H1023   1.111       .  S
C1018      H1024   1.111       .  S
C1025      C1026   1.405       .  A
C1025      C1030   1.403       .  A
C1025      H1032   1.085       .  S
C1026      C1027   1.415       .  A
C1027      C1028   1.402       .  A
C1027      C1034   1.508       .  S
C1028      C1029   1.406       .  A
C1028      H1033   1.084       .  S
C1029      C1030   1.416       .  A
C1030      C1031   1.507       .  S
C1031      H1035   1.111       .  S
C1031      H1036   1.109       .  S
C1031      H1037   1.110       .  S
C1034      H1038   1.110       .  S
C1034      H1039   1.110       .  S
C1034      H1040   1.111       .  S
C1041      C1042   1.405   1_655  A
C1041      C1046   1.401       .  A
C1041      H1048   1.085       .  S
C1042      C1043   1.415       .  A
C1043      C1044   1.403   1_455  A
C1043      C1050   1.507       .  S
C1044      C1045   1.405       .  A
C1044      H1049   1.084   1_655  S
C1045      C1046   1.416       .  A
C1046      C1047   1.509       .  S
C1047      H1051   1.111       .  S
C1047      H1052   1.110       .  S
C1047      H1053   1.110       .  S
C1050      H1054   1.110       .  S
C1050      H1055   1.109       .  S
C1050      H1056   1.111       .  S
C1057      C1058   1.402       .  A
C1057      C1062   1.399       .  A
C1057      H1064   1.085       .  S
C1058      C1059   1.415       .  A
C1059      C1060   1.409       .  A
C1059      C1066   1.506       .  S
C1060      C1061   1.406       .  A
C1060      H1065   1.084       .  S
C1061      C1062   1.414       .  A
C1062      C1063   1.509       .  S
C1063      H1067   1.111       .  S
C1063      H1068   1.111       .  S
C1063      H1069   1.109       .  S
C1066      H1071   1.111       .  S
C1073      C1078   1.409       .  A
C1073      H1080   1.083       .  S
C1074      C1075   1.416   1_554  A
C1075      C1076   1.398       .  A
C1075      C1082   1.510       .  S
C1076      H1081   1.083       .  S
C1077      C1078   1.416       .  A
C1078      C1079   1.506       .  S
C1079      H1083   1.111       .  S
C1079      H1084   1.110       .  S
C1079      H1085   1.110       .  S
C1082      H1086   1.111       .  S
C1082      H1087   1.109       .  S
C1082      H1088   1.111       .  S
C1089      C1090   1.404       .  A
C1089      C1094   1.402       .  A
C1089      H1096   1.084       .  S
C1090      C1091   1.418       .  A
C1091      C1092   1.403       .  A
C1092      C1093   1.403       .  A
C1092      H1097   1.084       .  S
C1093      C1094   1.417       .  A
C1094      C1095   1.509       .  S
C1095      H1099   1.111       .  S
C1095      H1100   1.110       .  S
C1095      H1101   1.108       .  S
C1098      H1102   1.110       .  S
C1098      H1103   1.108       .  S
C1098      H1104   1.111       .  S
C1105      C1106   1.406   1_445  A
C1106      C1107   1.416       .  A
C1107      C1108   1.403       .  A
C1107      C1114   1.507       .  S
C1108      C1109   1.405   1_655  A
C1108      H1113   1.084       .  S
C1110      C1111   1.508       .  S
C1111      H1115   1.111   1_565  S
C1111      H1116   1.110       .  S
C1111      H1117   1.110       .  S
C1114      H1118   1.110       .  S
C1114      H1119   1.109       .  S
C1114      H1120   1.111       .  S
C1121      C1122   1.403   1_556  A
C1121      C1126   1.400       .  A
C1121      H1128   1.083       .  S
C1123      C1124   1.409       .  A
C1123      C1130   1.506       .  S
C1124      H1129   1.083       .  S
C1125      C1126   1.417   1_554  A
C1126      C1127   1.510       .  S
C1127      H1131   1.111       .  S
C1127      H1132   1.109       .  S
C1127      H1133   1.111       .  S
C1130      H1134   1.110       .  S
C1130      H1135   1.110       .  S
C1130      H1136   1.111       .  S
