geometry optimzed in LAMMPS
_audit_creation_date              2020-11-30 
_audit_creation_method            'lammps2cif' 
_symmetry_space_group_name_H-M    'P1' 
_symmetry_Int_Tables_number       1 
_symmetry_cell_setting            triclinic 
loop_ 
_symmetry_equiv_pos_as_xyz 
  x,y,z 
_cell_length_a                    24.51064637 
_cell_length_b                    24.689304964102764 
_cell_length_c                    24.529941227654792 
_cell_angle_alpha                 90.17523271030652 
_cell_angle_beta                  89.25361569711178 
_cell_angle_gamma                 91.65861360563224 
loop_ 
_atom_site_label 
_atom_site_type_symbol 
_atom_site_fract_x 
_atom_site_fract_y 
_atom_site_fract_z 
_atom_site_charge 
O1          O  0.56071539  0.04862211  0.90066490    -0.84600
O2          O  0.53357754  0.09038261  0.59958023    -0.84700
O3          O  0.65875386  0.03905369  0.73387415    -0.86400
O4          O  0.54718109  0.17448462  0.76093125    -0.85200
O5          O  0.45402561  0.18159967  0.76841341    -0.84700
O6          O  0.64654682  0.94648268  0.73178262    -0.86100
O7          O  0.59084547  0.12737357  0.66415740    -0.84600
O8          O  0.60824237  0.10124635  0.83783218    -0.84200
Zr9        Zr  0.56832621  0.07944381  0.74952660     2.84300
O10         O  0.48795167  0.08946469  0.70048586    -1.06200
O11         O  0.56144268  0.99834403  0.79930651    -1.06900
C12         C  0.59937520  0.08331374  0.88662385     1.08500
C13         C  0.57024124  0.12506102  0.61587519     1.08500
C14         C  0.67646136  0.99001828  0.72957954     1.11500
C15         C  0.50343789  0.20175551  0.76726236     1.09300
H16         H  0.58711740  0.00718549  0.66252674     0.34800
O17         O  0.55660667  0.00762943  0.68783230    -1.27100
H18         H  0.49570456  0.10907047  0.83528436     0.34500
O19         O  0.49177429  0.07988655  0.80923480    -1.28800
O20         O  0.42271166  0.94945758  0.58969938    -0.84600
O21         O  0.41197481  0.93583788  0.89716622    -0.86100
O22         O  0.56866600  0.89629901  0.64646363    -0.84600
O23         O  0.38402830  0.13669404  0.67534500    -0.84700
O24         O  0.38273439  0.10954648  0.85186315    -0.84400
O25         O  0.58516830  0.88869347  0.82327580    -0.84200
O26         O  0.41772381  0.83917454  0.74779165    -0.84600
O27         O  0.30563491  0.97639888  0.73898129    -0.84000
O28         O  0.51124771  0.83469056  0.74484189    -0.85100
O29         O  0.31491900  0.06813498  0.75577692    -0.84300
O30         O  0.52905228  0.95469252  0.58664017    -0.84700
O31         O  0.53655778  0.92572718  0.89403269    -0.84400
O32         O  0.42666898  0.05299929  0.91007613    -0.84000
O33         O  0.41254917  0.08595427  0.60224925    -0.84400
O34         O  0.37578441  0.89599558  0.65196473    -0.84700
O35         O  0.35721542  0.90195937  0.82890470    -0.86100
Zr36       Zr  0.47577885  0.01865880  0.63857802     2.83100
Zr37       Zr  0.48421372  0.99744792  0.85653975     2.83500
Zr38       Zr  0.55000986  0.92638097  0.73858695     2.84100
Zr39       Zr  0.41209353  0.09060659  0.75846493     2.83400
Zr40       Zr  0.39492498  0.93520512  0.74278828     2.84200
O41         O  0.40574270  0.00764843  0.80450568    -1.06600
O42         O  0.47183122  0.93732959  0.68698291    -1.06100
C43         C  0.39329691  0.90717928  0.60308980     1.08500
C44         C  0.37054911  0.90681997  0.87944101     1.11100
C45         C  0.55701751  0.91287980  0.59831006     1.08700
C46         C  0.38744393  0.12667587  0.62363033     1.09100
C47         C  0.39262192  0.08968932  0.89932969     1.08600
C48         C  0.57206946  0.89355149  0.87425262     1.08200
C49         C  0.46275460  0.81318007  0.74989990     1.08600
C50         C  0.28678215  0.02449797  0.74517932     1.08100
H51         H  0.47072721  0.89385726  0.81727273     0.34800
O52         O  0.47337229  0.92632463  0.79565761    -1.27700
H53         H  0.36807402  0.02265018  0.67334501     0.34800
O54         O  0.39964629  0.01837678  0.69582130    -1.29100
C55         C  0.64862693  0.20183973  0.50236693    -0.00600
O56         O  0.61354081  0.13216394  0.31789549    -0.84600
O57         O  0.38745637  0.91460425  0.34608788    -0.84700
O58         O  0.45924408  0.08276552  0.40334018    -0.86400
O59         O  0.56471300  0.94437062  0.39480807    -0.85200
O60         O  0.59190490  0.88883410  0.32501874    -0.84700
O61         O  0.41114884  0.13234202  0.34182791    -0.86100
O62         O  0.44136550  0.96319091  0.40589708    -0.84600
O63         O  0.57484896  0.08504126  0.38990362    -0.84200
Zr64       Zr  0.50958891  0.01670516  0.35432027     2.84300
O65         O  0.49336826  0.93866958  0.30288797    -1.06200
O66         O  0.51252290  0.09283714  0.29660190    -1.06900
C67         C  0.60469907  0.12431743  0.36928859     1.08500
C68         C  0.40304816  0.92813302  0.39428869     1.08500
C69         C  0.42590780  0.11959517  0.39061183     1.11500
C70         C  0.58708284  0.90099233  0.37571087     1.09300
H71         H  0.39798831  0.02715139  0.33295959     0.34800
O72         O  0.42748876  0.02374965  0.30690045    -1.27100
H73         H  0.61372086  0.00873177  0.31562567     0.34500
O74         O  0.58168095  0.01061930  0.29329827    -1.28800
O75         O  0.36117122  0.92749762  0.17174726    -0.84600
O76         O  0.60945582  0.11319426  0.14037284    -0.86100
O77         O  0.33436307  0.07857483  0.26185863    -0.84600
O78         O  0.52407908  0.84163520  0.24021815    -0.84700
O79         O  0.66368342  0.95396175  0.24467604    -0.84400
O80         O  0.47057613  0.19073174  0.23063537    -0.84200
O81         O  0.42232833  0.06737393  0.09637100    -0.84600
O82         O  0.54686888  0.93890574  0.09077814    -0.84000
O83         O  0.38484639  0.12049228  0.16351190    -0.85100
O84         O  0.59105429  0.89120353  0.15630066    -0.84300
O85         O  0.32139203  0.98656990  0.27187900    -0.84700
O86         O  0.56366974  0.18227532  0.22537769    -0.84400
O87         O  0.67551906  0.04685004  0.24367972    -0.84000
O88         O  0.43102442  0.84843624  0.24847155    -0.84400
O89         O  0.41141531  0.96510575  0.10084674    -0.84700
O90         O  0.54726340  0.07208871  0.08308676    -0.86100
Zr91       Zr  0.41130176  0.94526640  0.25533185     2.83100
Zr92       Zr  0.58514300  0.08630194  0.23439885     2.83500
Zr93       Zr  0.43095864  0.09964902  0.24908823     2.84100
Zr94       Zr  0.56626848  0.93179515  0.24159975     2.83400
Zr95       Zr  0.49142055  0.01011883  0.13618784     2.84200
O96         O  0.57406399  0.00643407  0.18257328    -1.06600
O97         O  0.41949944  0.02023610  0.19849862    -1.06100
C98         C  0.36912049  0.94043830  0.12123571     1.08500
C99         C  0.58744384  0.10500868  0.09312088     1.11100
C100        C  0.30410786  0.03584615  0.27053464     1.08700
C101        C  0.47500122  0.82121302  0.24188775     1.09100
C102        C  0.69316802  0.99799473  0.24794104     1.08600
C103        C  0.51983917  0.21019014  0.22350376     1.08200
C104        C  0.38780021  0.10221625  0.11409537     1.08600
C105        C  0.57914899  0.90106860  0.10665191     1.08100
H106        H  0.50317520  0.11999682  0.16231576     0.34800
O107        O  0.50310724  0.08968073  0.18697589    -1.27700
H108        H  0.47855634  0.90351088  0.17067117     0.34800
O109        O  0.48442179  0.93524231  0.19320690    -1.29100
C110        C  0.29784098  0.85530404  0.01563361    -0.00600
C111        C  0.67346176  0.86042909  0.98428024    -0.00600
C112        C  0.64557571  0.82768306  0.50234146    -0.00600
C113        C  0.30737301  0.17327864  0.99918147    -0.00600
C114        C  0.68812126  0.17221460  0.98783947    -0.00600
C115        C  0.33379235  0.19594728  0.49073980    -0.00600
C116        C  0.33335464  0.81617795  0.48520896    -0.00600
O117        O  0.82038309  0.77732408  0.43018558    -0.84600
O118        O  0.02237743  0.74829674  0.66191572    -0.84700
O119        O  0.86253028  0.68362394  0.59094650    -0.86400
O120        O  0.88506103  0.85600101  0.60231387    -0.85200
O121        O  0.94127621  0.91718992  0.55674243    -0.84700
O122        O  0.91063968  0.61388429  0.55318699    -0.86100
O123        O  0.92946676  0.75684609  0.65859888    -0.84600
O124        O  0.81397554  0.77985186  0.52371664    -0.84200
Zr125      Zr  0.90504075  0.76788542  0.56206307     2.84300
O126        O  0.98772793  0.81619638  0.56511058    -1.06200
O127        O  0.90569001  0.71280550  0.48398734    -1.06900
C128        C  0.79361220  0.78237643  0.47529597     1.08500
C129        C  0.97435430  0.74879071  0.68437297     1.08500
C130        C  0.87301343  0.63326355  0.58495922     1.11500
C131        C  0.90553580  0.90415449  0.59425863     1.09300
H132        H  0.97444000  0.68415027  0.59633795     0.34800
O133        O  0.97768631  0.70746491  0.56512713    -1.27100
H134        H  0.88497985  0.84843772  0.48301005     0.34500
O135        O  0.91452399  0.82263611  0.48422280    -1.28800
O136        O  0.15583850  0.76052818  0.54442327    -0.84600
O137        O  0.95025883  0.75935783  0.31297755    -0.86100
O138        O  0.04279068  0.60764560  0.54709132    -0.84600
O139        O  0.04831566  0.91046226  0.56233155    -0.84700
O140        O  0.94441092  0.91971565  0.42460612    -0.84400
O141        O  0.91179506  0.61308013  0.42225461    -0.84200
O142        O  0.10676815  0.66956124  0.39235835    -0.84600
O143        O  0.10272655  0.84283541  0.37355926    -0.84000
O144        O  0.05048038  0.60692853  0.43630232    -0.85100
O145        O  0.06367427  0.91197290  0.42171990    -0.84300
O146        O  0.09302281  0.66936335  0.59734487    -0.84700
O147        O  0.87033005  0.68276118  0.37848577    -0.84400
O148        O  0.89652849  0.85828610  0.37167597    -0.84000
O149        O  0.08378819  0.84296347  0.61440140    -0.84400
O150        O  0.16311763  0.76455198  0.45089121    -0.84700
O151        O  0.04317220  0.74948930  0.31650085    -0.86100
Zr152      Zr  0.06008681  0.75746678  0.56967890     2.83100
Zr153      Zr  0.91540989  0.76725416  0.40615683     2.83500
Zr154      Zr  0.97802420  0.65262797  0.48738307     2.84100
Zr155      Zr  0.99766219  0.87078950  0.48815284     2.83400
Zr156      Zr  0.07039541  0.75771014  0.41302484     2.84200
O157        O  0.99773123  0.81663626  0.40993275    -1.06600
O158        O  0.05930799  0.70410024  0.49098352    -1.06100
C159        C  0.18339707  0.76459402  0.49951772     1.08500
C160        C  0.99745138  0.75212638  0.29063068     1.11100
C161        C  0.08092661  0.62067698  0.58136636     1.08700
C162        C  0.07251004  0.89267072  0.60460046     1.09100
C163        C  0.91250364  0.90689012  0.38523047     1.08600
C164        C  0.87621359  0.63215629  0.38900544     1.08200
C165        C  0.09339385  0.62107698  0.40773082     1.08600
C166        C  0.09471585  0.89337151  0.38291327     1.08100
H167        H  0.98763553  0.68287645  0.37746758     0.34800
O168        O  0.98781664  0.70670795  0.40925693    -1.27700
H169        H  0.10402876  0.83570684  0.49384619     0.34800
O170        O  0.07121801  0.81309559  0.49184968    -1.29100
O171        O  0.82413576  0.24483318  0.46345963    -0.84600
O172        O  0.03011554  0.28307702  0.68340993    -0.84700
O173        O  0.88644223  0.16045016  0.60549510    -0.86400
O174        O  0.88299032  0.33806678  0.62013193    -0.85200
O175        O  0.93284830  0.40713462  0.57897768    -0.84700
O176        O  0.93768841  0.10159971  0.55504883    -0.86100
O177        O  0.93962371  0.25769663  0.67909685    -0.84600
O178        O  0.82534015  0.24988697  0.55711338    -0.84200
Zr179      Zr  0.91775346  0.25333186  0.58411374     2.84300
O180        O  0.98936239  0.31722359  0.58821210    -1.06200
O181        O  0.92468946  0.20191676  0.50490137    -1.06900
C182        C  0.80094769  0.24554928  0.51152436     1.08500
C183        C  0.98193613  0.27473909  0.70499816     1.08500
C184        C  0.89863054  0.11262996  0.58823388     1.11500
C185        C  0.89685799  0.38841738  0.61316711     1.09300
H186        H  0.99686412  0.18261060  0.61973627     0.34800
O187        O  0.99790800  0.20542508  0.58779965    -1.27100
H188        H  0.88143683  0.32854045  0.50818470     0.34500
O189        O  0.91475796  0.30844608  0.50687696    -1.28800
O190        O  0.16369804  0.26054710  0.56232432    -0.84600
O191        O  0.95217972  0.27224704  0.33275609    -0.86100
O192        O  0.06800865  0.11891262  0.57526818    -0.84600
O193        O  0.05905879  0.41901450  0.56116212    -0.84700
O194        O  0.92040451  0.40648971  0.44960728    -0.84400
O195        O  0.94380622  0.10503191  0.44705519    -0.84200
O196        O  0.11303207  0.18551930  0.39265796    -0.84600
O197        O  0.10955922  0.35939404  0.40987764    -0.84000
O198        O  0.07634854  0.11781863  0.44687884    -0.85100
O199        O  0.05270563  0.41918350  0.45293838    -0.84300
O200        O  0.10334065  0.18817404  0.62814356    -0.84700
O201        O  0.89426326  0.16431302  0.39658447    -0.84400
O202        O  0.87763074  0.34005766  0.39836442    -0.84000
O203        O  0.10767960  0.35982593  0.61236930    -0.84400
O204        O  0.16734505  0.25356579  0.46868448    -0.84700
O205        O  0.04591244  0.27712502  0.33597737    -0.86100
Zr206      Zr  0.06963851  0.27022010  0.59065064     2.83100
Zr207      Zr  0.91917653  0.25592817  0.42710159     2.83500
Zr208      Zr  0.00575261  0.15468175  0.50663256     2.84100
Zr209      Zr  0.98971721  0.36863061  0.50882374     2.83400
Zr210      Zr  0.07604132  0.26817761  0.43058829     2.84200
O211        O  0.99485456  0.31628209  0.42950174    -1.06600
O212        O  0.07633829  0.21781032  0.51070899    -1.06100
C213        C  0.18876922  0.25174929  0.51682024     1.08500
C214        C  0.00013007  0.27888014  0.31032209     1.11100
C215        C  0.09802684  0.13803487  0.61461983     1.08700
C216        C  0.09800177  0.40737578  0.59386345     1.09100
C217        C  0.88458839  0.38959199  0.41454650     1.08600
C218        C  0.90741906  0.11626926  0.41161682     1.08200
C219        C  0.10862451  0.13582173  0.40853931     1.08600
C220        C  0.09423308  0.40721968  0.42354171     1.08100
H221        H  0.00358443  0.18511209  0.39486657     0.34800
O222        O  0.00122159  0.20744293  0.42721333    -1.27700
H223        H  0.10256079  0.34369917  0.51007085     0.34800
O224        O  0.07038491  0.32052211  0.50997385    -1.29100
C225        C  0.80240066  0.50307438  0.64457156    -0.00600
C226        C  0.18288018  0.52589873  0.65991354    -0.00600
C227        C  0.83873118  0.01818142  0.30587592    -0.00600
C228        C  0.83020158  0.00889094  0.68781460    -0.00600
C229        C  0.80595199  0.49761608  0.33458616    -0.00600
C230        C  0.18238629  0.50914755  0.34226240    -0.00600
C231        C  0.14742942  0.02578194  0.30679944    -0.00600
C232        C  0.14425430  0.00601740  0.68206191    -0.00600
O233        O  0.72151773  0.69393914  0.96454023    -0.84600
O234        O  0.75276624  0.45003285  0.15123235    -0.84700
O235        O  0.65012834  0.60527366  0.11504607    -0.86400
O236        O  0.82513969  0.62595878  0.10762437    -0.85200
O237        O  0.89313809  0.59154229  0.05329763    -0.84700
O238        O  0.58625968  0.55656731  0.06589074    -0.86100
O239        O  0.75437800  0.54208533  0.16553750    -0.84600
O240        O  0.72589917  0.68315501  0.05743685    -0.84200
Zr241      Zr  0.74022164  0.58671702  0.07605925     2.84300
O242        O  0.79831507  0.51414827  0.06211730    -1.06200
O243        O  0.68528539  0.59196511  0.99927738    -1.06900
C244        C  0.71839952  0.71192563  0.01426075     1.08500
C245        C  0.75720119  0.49217550  0.18203528     1.08500
C246        C  0.60074797  0.58865008  0.10496754     1.11500
C247        C  0.87536576  0.62201319  0.09290573     1.09300
H248        H  0.66767040  0.49961010  0.10060998     0.34800
O249        O  0.68921529  0.50561974  0.06786183    -1.27100
H250        H  0.81471530  0.63522501  0.99929558     0.34500
O251        O  0.79408067  0.60152731  0.99633681    -1.28800
O252        O  0.73675567  0.34279086  0.01141373    -0.84600
O253        O  0.75006169  0.58532563  0.82161561    -0.86100
O254        O  0.59426297  0.43518503  0.04296046    -0.84600
O255        O  0.89858052  0.46535781  0.04565120    -0.84700
O256        O  0.89364427  0.59834804  0.92180656    -0.84400
O257        O  0.58653093  0.58335181  0.94476537    -0.84200
O258        O  0.64982489  0.42552924  0.86331334    -0.84600
O259        O  0.82780628  0.42044276  0.86733128    -0.84000
O260        O  0.58555104  0.46389686  0.91914638    -0.85100
O261        O  0.89363764  0.47119018  0.91254137    -0.84300
O262        O  0.66233548  0.39393814  0.08954965    -0.84700
O263        O  0.64780755  0.63273046  0.89171764    -0.84400
O264        O  0.82406394  0.64944122  0.88976262    -0.84000
O265        O  0.83681195  0.40348440  0.08263624    -0.84400
O266        O  0.73308033  0.35413147  0.91876946    -0.84700
O267        O  0.75472245  0.49297325  0.81223939    -0.86100
Zr268      Zr  0.74728137  0.43273259  0.05425884     2.83100
Zr269      Zr  0.73791658  0.60614257  0.91973132     2.83500
Zr270      Zr  0.63321376  0.51188860  0.99156531     2.84100
Zr271      Zr  0.85278702  0.52841945  0.98419115     2.83400
Zr272      Zr  0.74071695  0.45115020  0.90090022     2.84200
O273        O  0.79363952  0.53160373  0.91028886    -1.06600
O274        O  0.68875001  0.43758040  0.97997809    -1.06100
C275        C  0.73110954  0.32461857  0.96208659     1.08500
C276        C  0.75754554  0.54167528  0.79320123     1.11100
C277        C  0.61214324  0.40009507  0.07687934     1.08700
C278        C  0.88556743  0.42395014  0.07626326     1.09100
C279        C  0.87503389  0.63811000  0.89337343     1.08600
C280        C  0.59918315  0.62006428  0.90912064     1.08200
C281        C  0.59985753  0.43617928  0.87699948     1.08600
C282        C  0.87762341  0.43481858  0.87737395     1.08100
H283        H  0.66188462  0.52900886  0.87971777     0.34800
O284        O  0.68486753  0.52584049  0.91120059    -1.27700
H285        H  0.82366907  0.41590712  0.97197959     0.34800
O286        O  0.80031633  0.44658963  0.97565325    -1.29100
O287        O  0.26356653  0.68399697  0.03107656    -0.84600
O288        O  0.24405667  0.45227100  0.83256085    -0.84700
O289        O  0.34550243  0.60354949  0.88213910    -0.86400
O290        O  0.16550510  0.62325038  0.89396478    -0.85200
O291        O  0.09821017  0.57930728  0.94456805    -0.84700
O292        O  0.40658040  0.55523076  0.93203967    -0.86100
O293        O  0.24002109  0.54486653  0.82659269    -0.84600
O294        O  0.26269782  0.67689796  0.93780035    -0.84200
Zr295      Zr  0.25361068  0.58146397  0.91742559     2.84300
O296        O  0.19669083  0.50402201  0.92133852    -1.06200
O297        O  0.30979475  0.58496793  0.99468605    -1.06900
C298        C  0.26572985  0.70420480  0.98238104     1.08500
C299        C  0.23779529  0.49683635  0.80577223     1.08500
C300        C  0.39398901  0.58754914  0.89303921     1.11500
C301        C  0.11537736  0.61664339  0.91133677     1.09300
H302        H  0.32956585  0.50000875  0.89270316     0.34800
O303        O  0.30703018  0.50381768  0.92478222    -1.27100
H304        H  0.17859914  0.61979348  0.99550357     0.34500
O305        O  0.19909089  0.58712644  0.99556023    -1.28800
O306        O  0.25823850  0.33831985  0.97271536    -0.84600
O307        O  0.24839914  0.57567013  0.16824070    -0.86100
O308        O  0.40356411  0.43571509  0.95231547    -0.84600
O309        O  0.09970887  0.44220444  0.93445326    -0.84700
O310        O  0.10348736  0.56414428  0.07262472    -0.84400
O311        O  0.40851190  0.57468363  0.05563030    -0.84200
O312        O  0.31933205  0.40582760  0.12610899    -0.84600
O313        O  0.14543553  0.40215852  0.10918286    -0.84000
O314        O  0.39069349  0.44363433  0.07616327    -0.85100
O315        O  0.08698202  0.44303830  0.05087405    -0.84300
O316        O  0.33846709  0.39571620  0.89781506    -0.84700
O317        O  0.34650671  0.62661410  0.10117055    -0.84400
O318        O  0.16805936  0.62667827  0.10254385    -0.84000
O319        O  0.16686187  0.38807581  0.90011308    -0.84400
O320        O  0.24441676  0.34474146  0.06538484    -0.84700
O321        O  0.23070441  0.48410221  0.17541697    -0.86100
Zr322      Zr  0.25074713  0.42744861  0.92959725     2.83100
Zr323      Zr  0.25514561  0.59371533  0.07187132     2.83500
Zr324      Zr  0.35863593  0.50547108  0.00496734     2.84100
Zr325      Zr  0.14013579  0.50989993  0.99830013     2.83400
Zr326      Zr  0.23837112  0.43983588  0.08648461     2.84200
O327        O  0.19216441  0.51924585  0.07713142    -1.06600
O328        O  0.29810319  0.43183338  0.01102770    -1.06100
C329        C  0.25474261  0.31817581  0.02146905     1.08500
C330        C  0.23639287  0.53249098  0.19550390     1.11100
C331        C  0.38792312  0.40308436  0.91412624     1.08700
C332        C  0.11712886  0.40148950  0.90586180     1.09100
C333        C  0.11950873  0.60530051  0.10150172     1.08600
C334        C  0.39586723  0.61387424  0.08774853     1.08200
C335        C  0.37025139  0.41243927  0.11440858     1.08600
C336        C  0.09778770  0.40775278  0.08761673     1.08100
H337        H  0.32366814  0.51575914  0.11492859     0.34800
O338        O  0.30205969  0.51361718  0.08213152    -1.27700
H339        H  0.16883911  0.40023319  0.00536900     0.34800
O340        O  0.19138546  0.43253665  0.00488144    -1.29100
C341        C  0.01210557  0.70387717  0.83253837    -0.00600
C342        C  0.98526736  0.32902461  0.85517568    -0.00600
C343        C  0.49724861  0.66963745  0.80247173    -0.00600
C344        C  0.50162026  0.67510543  0.19086964    -0.00600
C345        C  0.97758896  0.32195187  0.15771495    -0.00600
C346        C  0.00779841  0.70078242  0.13839843    -0.00600
C347        C  0.48478833  0.35388732  0.80094162    -0.00600
C348        C  0.50218709  0.36162692  0.18034688    -0.00600
O349        O  0.59055077  0.38435634  0.56634575    -0.84600
O350        O  0.44350106  0.49100227  0.32398824    -0.84700
O351        O  0.46725615  0.34276542  0.44194856    -0.86400
O352        O  0.61848682  0.43434239  0.39129318    -0.85200
O353        O  0.64903754  0.52192946  0.40515372    -0.84700
O354        O  0.39731153  0.35857166  0.50266139    -0.86100
O355        O  0.49942297  0.42066182  0.34230622    -0.84600
O356        O  0.57684927  0.35617315  0.47835029    -0.84200
Zr357      Zr  0.52635969  0.42486785  0.43532899     2.84300
O358        O  0.52541245  0.51379661  0.40342533    -1.06200
O359        O  0.49299890  0.42051518  0.52489158    -1.06900
C360        C  0.59468163  0.34929765  0.52667125     1.08500
C361        C  0.47012400  0.44829954  0.31020737     1.08500
C362        C  0.42416091  0.32808220  0.46995448     1.11500
C363        C  0.65504823  0.47348881  0.38710832     1.09300
H364        H  0.41353292  0.43274011  0.41637034     0.34800
O365        O  0.43653805  0.45532196  0.43929132    -1.27100
H366        H  0.61860856  0.46490458  0.48992167     0.34500
O367        O  0.58226585  0.47900013  0.49012968    -1.28800
O368        O  0.39333950  0.63552401  0.41964885    -0.84600
O369        O  0.54439068  0.53249108  0.66194602    -0.86100
O370        O  0.32257091  0.45631427  0.47334384    -0.84600
O371        O  0.57310512  0.61232322  0.36765077    -0.84700
O372        O  0.66405145  0.56154883  0.51373453    -0.84400
O373        O  0.41358922  0.40693384  0.62029804    -0.84200
O374        O  0.36703898  0.58735363  0.59437278    -0.84600
O375        O  0.51868885  0.67656527  0.54942819    -0.84000
O376        O  0.33657454  0.49960227  0.58210447    -0.85100
O377        O  0.58915863  0.66171151  0.48902565    -0.84300
O378        O  0.34217331  0.51684273  0.40441367    -0.84700
O379        O  0.50320732  0.41876682  0.64387599    -0.84400
O380        O  0.64215757  0.50448618  0.58485412    -0.84000
O381        O  0.48379821  0.59996009  0.34298587    -0.84400
O382        O  0.40907796  0.66426246  0.50707389    -0.84700
O383        O  0.48677422  0.60179424  0.64460706    -0.86100
Zr384      Zr  0.43621832  0.54528073  0.40848364     2.83100
Zr385      Zr  0.54878948  0.47524886  0.57906240     2.83500
Zr386      Zr  0.40415366  0.45192879  0.53008814     2.84100
Zr387      Zr  0.58176396  0.56844950  0.45808414     2.83400
Zr388      Zr  0.45902199  0.59560094  0.55161509     2.84200
O389        O  0.54865742  0.56494168  0.54816352    -1.06600
O390        O  0.40268982  0.54101175  0.49771073    -1.06100
C391        C  0.39010976  0.67084766  0.45908584     1.08500
C392        C  0.51827975  0.57549326  0.67585914     1.11100
C393        C  0.30984333  0.48430697  0.43102541     1.08700
C394        C  0.53275795  0.61791504  0.33447384     1.09100
C395        C  0.67577677  0.53464154  0.55708398     1.08600
C396        C  0.45436556  0.40100771  0.65300674     1.08200
C397        C  0.33062709  0.54840198  0.59943072     1.08600
C398        C  0.56202996  0.69167311  0.52234337     1.08100
H399        H  0.44580980  0.50663681  0.62138521     0.34800
O400        O  0.45970248  0.50709782  0.58452585    -1.27700
H401        H  0.49357034  0.63660730  0.44857097     0.34800
O402        O  0.49291276  0.59992347  0.46212230    -1.29100
O403        O  0.11213771  0.90811023  0.06814148    -0.84600
O404        O  0.01358374  0.06678036  0.82437499    -0.84700
O405        O  0.06888056  0.89063506  0.89013510    -0.86400
O406        O  0.16209651  0.04084706  0.94200639    -0.85200
O407        O  0.14409117  0.10904571  0.00297083    -0.84700
O408        O  0.98075684  0.85896877  0.90341382    -0.86100
O409        O  0.08394704  0.01076292  0.84308231    -0.84600
O410        O  0.14358979  0.92399294  0.98097220    -0.84200
Zr411      Zr  0.07964573  0.98063487  0.93622704     2.84300
O412        O  0.04858568  0.06960124  0.94081435    -1.06200
O413        O  0.02292645  0.92478894  0.98990205    -1.06900
C414        C  0.14775997  0.90345342  0.02888289     1.08500
C415        C  0.05642979  0.04024414  0.81075489     1.08500
C416        C  0.02984387  0.85408866  0.88512759     1.11500
C417        C  0.17581053  0.08370924  0.97010790     1.09300
H418        H  0.99012789  0.96832702  0.86667690     0.34800
O419        O  0.99043822  0.98179292  0.90382064    -1.27100
H420        H  0.11891380  0.01095506  0.04052448     0.34500
O421        O  0.08217076  0.01144621  0.02671656    -1.28800
O422        O  0.86969144  0.11511194  0.91852994    -0.84600
O423        O  0.96551026  0.95921729  0.16136883    -0.86100
O424        O  0.88874305  0.93592807  0.86748789    -0.84600
O425        O  0.04481117  0.18304138  0.97801889    -0.84700
O426        O  0.09541534  0.08637195  0.12168879    -0.84400
O427        O  0.94283453  0.84120060  0.01108324    -0.84200
O428        O  0.82151751  0.98721938  0.04416167    -0.84600
O429        O  0.91614780  0.13591319  0.09849356    -0.84000
O430        O  0.84045686  0.91563845  0.98764483    -0.85100
O431        O  0.00524031  0.16531709  0.08755990    -0.84300
O432        O  0.90260781  0.02465283  0.84235959    -0.84700
O433        O  0.99798692  0.86191250  0.08340121    -0.84400
O434        O  0.08093535  0.99798207  0.14770057    -0.84000
O435        O  0.98814757  0.16461176  0.90602923    -0.84400
O436        O  0.84106097  0.10105933  0.00665523    -0.84700
O437        O  0.89586774  0.01650473  0.14340982    -0.86100
Zr438      Zr  0.95868655  0.07051694  0.90852674     2.83100
Zr439      Zr  0.02490673  0.95539710  0.07979577     2.83500
Zr440      Zr  0.93384374  0.92514697  0.95724424     2.84100
Zr441      Zr  0.05044991  0.09951534  0.03204183     2.83400
Zr442      Zr  0.90490258  0.04574971  0.05163842     2.84200
O443        O  0.99349034  0.04381969  0.08585437    -1.06600
O444        O  0.90195717  0.01379160  0.96172509    -1.06100
C445        C  0.83487313  0.11990197  0.95842743     1.08500
C446        C  0.92215873  0.98527015  0.17466195     1.11100
C447        C  0.88378459  0.97619039  0.83399308     1.08700
C448        C  0.01801701  0.19689139  0.93530115     1.09100
C449        C  0.10032873  0.04621837  0.15543734     1.08600
C450        C  0.96946089  0.82858245  0.05441431     1.08200
C451        C  0.80811317  0.94303108  0.01809257     1.08600
C452        C  0.95601359  0.17152569  0.10472858     1.08100
H453        H  0.91178740  0.93260664  0.07047387     0.34800
O454        O  0.93522707  0.95626281  0.04782891    -1.27700
H455        H  0.94771379  0.13779731  0.99948142     0.34800
O456        O  0.96143729  0.10135162  0.99830822    -1.29100
C457        C  0.49864381  0.38628211  0.23726592    -0.14500
C458        C  0.46825058  0.42885011  0.25322842    -0.29700
H459        H  0.52519605  0.36819276  0.26683778     0.14500
H460        H  0.44339955  0.45044943  0.22478455     0.15100
C461        C  0.48754808  0.37676445  0.74351958    -0.14500
C462        C  0.44641899  0.37412934  0.70668615    -0.29700
H463        H  0.52585557  0.39733286  0.73233690     0.14500
H464        H  0.40740194  0.35465257  0.71711524     0.15100
C465        C  0.00361307  0.75653323  0.11240505    -0.14500
C466        C  0.96837293  0.77170277  0.07339556    -0.29700
H467        H  0.03403661  0.78612076  0.12652110     0.14500
H468        H  0.93945529  0.74309726  0.05531805     0.15100
C469        C  0.98349745  0.26621187  0.13033617    -0.14500
C470        C  0.94544741  0.22469433  0.13193819    -0.29700
H471        H  0.02186620  0.25943368  0.10906607     0.14500
H472        H  0.90648238  0.23028906  0.15243138     0.15100
C473        C  0.54112271  0.64674404  0.28196346    -0.14500
C474        C  0.50096837  0.64428685  0.24429086    -0.29700
H475        H  0.57850628  0.67034078  0.27435517     0.14500
H476        H  0.46488913  0.61873645  0.25230587     0.15100
C477        C  0.49233614  0.63776645  0.74937764    -0.14500
C478        C  0.52498167  0.59784265  0.73148370    -0.29700
H479        H  0.45822615  0.64864949  0.72415740     0.14500
H480        H  0.55708057  0.58240978  0.75662243     0.15100
C481        C  0.98449262  0.27318757  0.88225593    -0.14500
C482        C  0.02062239  0.25442355  0.91851294    -0.29700
H483        H  0.95241765  0.24529781  0.86853775     0.14500
H484        H  0.05215988  0.28047411  0.93594423     0.15100
C485        C  0.04118956  0.80194624  0.85661225    -0.14500
C486        C  0.00761675  0.75765493  0.86383663    -0.29700
H487        H  0.07631964  0.79984463  0.82934592     0.14500
H488        H  0.97462457  0.76073369  0.89350575     0.15100
C489        C  0.02502545  0.36855061  0.88289502    -0.14500
C490        C  0.07877880  0.36531480  0.87723752    -0.29700
H491        H  0.00919978  0.40059476  0.90869199     0.14500
H492        H  0.09543037  0.33294764  0.85250366     0.15100
C493        C  0.05243055  0.36799524  0.09986698    -0.14500
C494        C  0.03161115  0.35602813  0.14986661    -0.29700
H495        H  0.03004068  0.35298816  0.06468558     0.14500
H496        H  0.05222821  0.37291737  0.18529163     0.15100
C497        C  0.06442273  0.68139463  0.12475832    -0.14500
C498        C  0.07765604  0.63013054  0.13466793    -0.29700
H499        H  0.09202064  0.70662474  0.09978859     0.14500
H500        H  0.04906546  0.60324322  0.15640617     0.15100
C501        C  0.07324635  0.65585253  0.89684638    -0.14500
C502        C  0.06623933  0.67719197  0.84703827    -0.29700
H503        H  0.04129391  0.66145909  0.92735914     0.14500
H504        H  0.09680770  0.66968280  0.81563929     0.15100
C505        C  0.43041002  0.37317665  0.88575777    -0.14500
C506        C  0.43746425  0.37880891  0.83171599    -0.29700
H507        H  0.45958190  0.35131594  0.90960014     0.14500
H508        H  0.41001440  0.40476635  0.80992461     0.15100
C509        C  0.43901295  0.60413555  0.85628222    -0.14500
C510        C  0.44668522  0.65488054  0.83715501    -0.29700
H511        H  0.46978774  0.57427838  0.84783523     0.14500
H512        H  0.41763124  0.68569212  0.84803049     0.15100
C513        C  0.44707797  0.66220549  0.16156157    -0.14500
C514        C  0.44329344  0.64522969  0.10939476    -0.29700
H515        H  0.40990918  0.66162474  0.18628601     0.14500
H516        H  0.47924742  0.64657520  0.08317263     0.15100
C517        C  0.46136002  0.38665995  0.14211004    -0.14500
C518        C  0.40733447  0.38193679  0.14876719    -0.29700
H519        H  0.47696063  0.41225964  0.10906960     0.14500
H520        H  0.39027796  0.35726248  0.18179114     0.15100
C521        C  0.57106774  0.36571472  0.10443267    -0.14500
C522        C  0.55873634  0.37533579  0.15704397    -0.29700
H523        H  0.54210201  0.34329962  0.07917628     0.14500
H524        H  0.58663949  0.40084236  0.18079286     0.15100
C525        C  0.55662672  0.60581857  0.14148179    -0.14500
C526        C  0.55145996  0.65752082  0.15765258    -0.29700
H527        H  0.52411454  0.57628851  0.15082259     0.14500
H528        H  0.58292902  0.68724405  0.14566662     0.15100
C529        C  0.55035672  0.65784313  0.83207880    -0.14500
C530        C  0.55298527  0.64762243  0.88581938    -0.29700
H531        H  0.58761783  0.65601237  0.80767050     0.14500
H532        H  0.51743592  0.65150824  0.91214872     0.15100
C533        C  0.55447372  0.41988237  0.84061939    -0.14500
C534        C  0.53871019  0.36806308  0.83047387    -0.29700
H535        H  0.52801022  0.45195688  0.82791700     0.14500
H536        H  0.56323314  0.33573946  0.84614846     0.15100
C537        C  0.93099433  0.39947428  0.10650061    -0.14500
C538        C  0.92837643  0.35049875  0.13210306    -0.29700
H539        H  0.96833781  0.42384302  0.10647184     0.14500
H540        H  0.88936049  0.32846635  0.13303748     0.15100
C541        C  0.92045640  0.40539517  0.84869436    -0.14500
C542        C  0.92894897  0.35320541  0.86152885    -0.29700
H543        H  0.95275743  0.42924841  0.82862675     0.14500
H544        H  0.89757261  0.33087831  0.88473962     0.15100
C545        C  0.91420499  0.67587449  0.86399998    -0.14500
C546        C  0.96549522  0.66276663  0.84907876    -0.29700
H547        H  0.90049599  0.71647864  0.85607038     0.14500
H548        H  0.97644920  0.62091009  0.85557435     0.15100
C549        C  0.91398707  0.65740217  0.12379693    -0.14500
C550        C  0.96746199  0.65978606  0.11272184    -0.29700
H551        H  0.89763515  0.68425091  0.15475942     0.14500
H552        H  0.98278247  0.63267951  0.08134599     0.15100
C553        C  0.07593151  0.04215284  0.75362105    -0.14500
C554        C  0.11413032  0.00710415  0.73676663    -0.29700
H555        H  0.05906638  0.07164221  0.72644429     0.14500
H556        H  0.12729123  0.97634374  0.76500574     0.15100
C557        C  0.12397842  0.01865195  0.24938355    -0.14500
C558        C  0.12897803  0.05536471  0.20803295    -0.29700
H559        H  0.09887487  0.98228662  0.24263301     0.14500
H560        H  0.15108825  0.09355105  0.21396871     0.15100
C561        C  0.19831382  0.50211298  0.28284482    -0.14500
C562        C  0.22645502  0.53987420  0.25415608    -0.29700
H563        H  0.18577728  0.46503068  0.26185541     0.14500
H564        H  0.23827472  0.57823546  0.27305819     0.15100
C565        C  0.23498690  0.51509650  0.37458101    -0.14500
C566        C  0.25437077  0.47807449  0.40958720    -0.29700
H567        H  0.25974610  0.55137675  0.36592231     0.14500
H568        H  0.23158006  0.44132753  0.42022909     0.15100
C569        C  0.79739123  0.51036610  0.27388204    -0.14500
C570        C  0.76588682  0.47981343  0.24055015    -0.29700
H571        H  0.81659137  0.54698340  0.25699231     0.14500
H572        H  0.74989922  0.44104702  0.25502904     0.15100
C573        C  0.75106495  0.49999948  0.36515680    -0.14500
C574        C  0.70869321  0.46340977  0.36036736    -0.29700
H575        H  0.74595869  0.53422591  0.39251746     0.14500
H576        H  0.71342925  0.42631291  0.33728886     0.15100
C577        C  0.86126816  0.00576979  0.74144366    -0.14500
C578        C  0.85507210  0.96781560  0.78118033    -0.29700
H579        H  0.89107353  0.03846814  0.74857185     0.14500
H580        H  0.82912056  0.93204619  0.77539736     0.15100
C581        C  0.89954737  0.97935523  0.22978792    -0.14500
C582        C  0.86902689  0.01917302  0.25137140    -0.29700
H583        H  0.90681080  0.94179156  0.25063030     0.14500
H584        H  0.86394361  0.05580736  0.22757264     0.15100
C585        C  0.19810054  0.53108111  0.72013045    -0.14500
C586        C  0.22549914  0.49241301  0.74685485    -0.29700
H587        H  0.18584075  0.56689569  0.74249899     0.14500
H588        H  0.23607451  0.45541768  0.72559154     0.15100
C589        C  0.23621802  0.52187358  0.62711314    -0.14500
C590        C  0.27760619  0.55955464  0.62709826    -0.29700
H591        H  0.24264921  0.48424993  0.60524378     0.14500
H592        H  0.27274667  0.59772687  0.64847900     0.15100
C593        C  0.77037531  0.54717410  0.73396048    -0.14500
C594        C  0.79762406  0.50815855  0.70682335    -0.29700
H595        H  0.75503175  0.58169522  0.71238509     0.14500
H596        H  0.81217214  0.47459968  0.73074850     0.15100
C597        C  0.74587166  0.50773538  0.62093168    -0.14500
C598        C  0.73236328  0.53648191  0.57638125    -0.29700
H599        H  0.71457008  0.48304040  0.64165173     0.14500
H600        H  0.76266910  0.55911540  0.55249996     0.15100
C601        C  0.00500000  0.28839085  0.25040726    -0.14500
C602        C  0.96747037  0.31251889  0.21914942    -0.29700
H603        H  0.04343291  0.27756048  0.23127478     0.14500
H604        H  0.92962632  0.32556834  0.23790772     0.15100
C605        C  0.97149256  0.28519823  0.76349627    -0.14500
C606        C  0.99965110  0.32111175  0.79452652    -0.29700
H607        H  0.93539579  0.26500780  0.78090719     0.14500
H608        H  0.03400976  0.34358429  0.77634869     0.15100
C609        C  0.84605607  0.43077754  0.39707517    -0.14500
C610        C  0.83212037  0.44273405  0.34521626    -0.29700
H611        H  0.83450480  0.45884639  0.42919162     0.14500
H612        H  0.84471127  0.41713267  0.31150715     0.15100
C613        C  0.82092247  0.44638859  0.63042899    -0.14500
C614        C  0.86972841  0.42917901  0.64579358    -0.29700
H615        H  0.79736157  0.42172799  0.60171431     0.14500
H616        H  0.89515891  0.45476328  0.67184579     0.15100
C617        C  0.14762575  0.47355644  0.65338827    -0.14500
C618        C  0.13835672  0.45096307  0.60424444    -0.29700
H619        H  0.12768856  0.45541696  0.68904890     0.14500
H620        H  0.15781222  0.46844339  0.56808412     0.15100
C621        C  0.12858245  0.45283797  0.40861618    -0.14500
C622        C  0.14824671  0.45936002  0.35832335    -0.29700
H623        H  0.13774790  0.48113220  0.44095515     0.14500
H624        H  0.13772488  0.42835684  0.32829547     0.15100
C625        C  0.12751442  0.10030225  0.64909734    -0.14500
C626        C  0.12422500  0.04683872  0.64104316    -0.29700
H627        H  0.14857260  0.11628324  0.68468543     0.14500
H628        H  0.10417301  0.03189076  0.60441300     0.15100
C629        C  0.85094743  0.06120490  0.65996382    -0.14500
C630        C  0.86665116  0.06552772  0.60765600    -0.29700
H631        H  0.85448468  0.09734912  0.68540004     0.20100
H632        H  0.86229132  0.03162368  0.57973022     0.15100
C633        C  0.87889568  0.06906800  0.38764521    -0.14500
C634        C  0.85875860  0.06889891  0.33689370    -0.29700
H635        H  0.87806778  0.03265715  0.41213426     0.14500
H636        H  0.85886115  0.10711972  0.31489638     0.15100
C637        C  0.13512544  0.08241902  0.32863447    -0.14500
C638        C  0.14250443  0.09531049  0.38140767    -0.29700
H639        H  0.11150668  0.10946835  0.30391512     0.14500
H640        H  0.16273160  0.06684970  0.40752109     0.15100
C641        C  0.99877271  0.75008096  0.23038780    -0.14500
C642        C  0.00268082  0.70352238  0.20124707    -0.29700
H643        H  0.99412653  0.78864027  0.21031215     0.14500
H644        H  0.00545600  0.66579990  0.22365081     0.15100
C645        C  0.97046491  0.73793127  0.74410423    -0.14500
C646        C  0.01163141  0.71480668  0.77102056    -0.29700
H647        H  0.93321472  0.74779755  0.76587318     0.14500
H648        H  0.04760725  0.70418393  0.74740163     0.15100
C649        C  0.14731547  0.55937852  0.34888979    -0.14500
C650        C  0.13365283  0.57917276  0.39821304    -0.29700
H651        H  0.12998378  0.57750242  0.31290720     0.14500
H652        H  0.15276373  0.56438556  0.43452752     0.15100
C653        C  0.11418697  0.57514877  0.60016020    -0.14500
C654        C  0.15032125  0.57585427  0.64187671    -0.29700
H655        H  0.10745561  0.53924047  0.57620303     0.14500
H656        H  0.15505321  0.61310757  0.66525461     0.15100
C657        C  0.83782168  0.59631221  0.61785569    -0.14500
C658        C  0.84427573  0.54281646  0.61895127    -0.29700
H659        H  0.80324242  0.61350540  0.63898665     0.14500
H660        H  0.87896439  0.52675339  0.59669680     0.15100
C661        C  0.83753488  0.59393741  0.36130220    -0.14500
C662        C  0.84653831  0.54066435  0.35759682    -0.29700
H663        H  0.80049455  0.60976926  0.34439172     0.14500
H664        H  0.88541739  0.52732243  0.37282696     0.15100
C665        C  0.11724463  0.98530068  0.34547811    -0.14500
C666        C  0.12355714  0.93143389  0.34456844    -0.29700
H667        H  0.08918535  0.00098945  0.37599285     0.14500
H668        H  0.15044926  0.91430635  0.31389714     0.15100
C669        C  0.89827302  0.95272563  0.35153169    -0.14500
C670        C  0.84752483  0.96540318  0.33714009    -0.29700
H671        H  0.93179180  0.98105302  0.34180054     0.14500
H672        H  0.81308789  0.93897484  0.34869631     0.15100
C673        C  0.89137048  0.94784157  0.63321394    -0.14500
C674        C  0.84062209  0.95810582  0.65250347    -0.29700
H675        H  0.92450742  0.97613351  0.64339655     0.14500
H676        H  0.80653245  0.93179713  0.64052391     0.15100
C677        C  0.08380290  0.93340965  0.64595081    -0.14500
C678        C  0.13458911  0.95011685  0.65764477    -0.29700
H679        H  0.04991162  0.95869877  0.65753463     0.14500
H680        H  0.16877089  0.92620805  0.64383425     0.15100
C681        C  0.24264590  0.77182902  0.50622924    -0.14500
C682        C  0.27369692  0.80331438  0.47301677    -0.29700
H683        H  0.26037650  0.75603881  0.54312744     0.14500
H684        H  0.25538461  0.82086855  0.43721666     0.15100
C685        C  0.36355312  0.76285650  0.48910329    -0.14500
C686        C  0.36332764  0.72348518  0.44991489    -0.29700
H687        H  0.38463058  0.75563875  0.52698099     0.14500
H688        H  0.34250100  0.72975373  0.41174794     0.15100
C689        C  0.24633698  0.23705599  0.52225371    -0.14500
C690        C  0.27376251  0.20907924  0.48418481    -0.29700
H691        H  0.26605291  0.24689738  0.56058791     0.14500
H692        H  0.25273613  0.19746329  0.44697792     0.15100
C693        C  0.36546571  0.25005565  0.49850010    -0.14500
C694        C  0.40258237  0.27233090  0.46297895    -0.29700
H695        H  0.35434296  0.27378679  0.53406765     0.14500
H696        H  0.41587309  0.25131414  0.42660754     0.15100
C697        C  0.69745576  0.23376195  0.99232340    -0.14500
C698        C  0.72099859  0.26551480  0.95362802    -0.29700
H699        H  0.68504449  0.25341369  0.03012979     0.14500
H700        H  0.73026812  0.24858853  0.91385979     0.15100
C701        C  0.74272046  0.14417050  0.98788246    -0.14500
C702        C  0.78291729  0.14807776  0.94952858    -0.29700
H703        H  0.74970226  0.11834111  0.02282147     0.14500
H704        H  0.77745215  0.17057502  0.91224665     0.15100
C705        C  0.29486211  0.23282122  0.99252350    -0.14500
C706        C  0.26505189  0.26031792  0.02883959    -0.29700
H707        H  0.31019570  0.25447014  0.95665810     0.14500
H708        H  0.25113860  0.24083114  0.06637170     0.15100
C709        C  0.25254484  0.14175434  0.00244473    -0.14500
C710        C  0.23205799  0.10663714  0.96456625    -0.29700
H711        H  0.22754338  0.15038576  0.03816075     0.14500
H712        H  0.25535254  0.09574710  0.92853953     0.15100
C713        C  0.70572366  0.81646700  0.50930779    -0.14500
C714        C  0.73526199  0.79312733  0.46965356    -0.29700
H715        H  0.72552692  0.82695030  0.54748073     0.14500
H716        H  0.71661672  0.78448753  0.43049359     0.15100
C717        C  0.61661739  0.77240914  0.49423184    -0.14500
C718        C  0.58214767  0.74788694  0.53044901    -0.29700
H719        H  0.62808852  0.74995023  0.45785968     0.14500
H720        H  0.56874910  0.76856669  0.56709486     0.15100
C721        C  0.70607609  0.77039210  0.02274294    -0.14500
C722        C  0.67554272  0.79804218  0.98731783    -0.29700
H723        H  0.72400346  0.79147739  0.05737242     0.14500
H724        H  0.65753869  0.77486126  0.95395455     0.15100
C725        C  0.73190025  0.88350046  0.98702771    -0.14500
C726        C  0.75097736  0.92209937  0.02212596    -0.29700
H727        H  0.75977560  0.86742075  0.95657406     0.14500
H728        H  0.72456337  0.94001676  0.05260585     0.15100
C729        C  0.27208038  0.76338753  0.97650754    -0.14500
C730        C  0.29278367  0.79382780  0.01684147    -0.29700
H731        H  0.25986056  0.78181888  0.93870704     0.14500
H732        H  0.30504260  0.77285107  0.05344013     0.15100
C733        C  0.19852925  0.87403587  0.03940751    -0.14500
C734        C  0.24242551  0.87994282  0.00554536    -0.29700
H735        H  0.20133157  0.85013781  0.07631663     0.14500
H736        H  0.23927717  0.90587941  0.97010455     0.15100
C737        C  0.24504959  0.04642470  0.27715131    -0.14500
C738        C  0.20900628  0.01511067  0.30547618    -0.29700
H739        H  0.23101847  0.08340832  0.25899350     0.14500
H740        H  0.22422124  0.98038344  0.32705230     0.15100
C741        C  0.75110699  0.99086562  0.26027019    -0.14500
C742        C  0.77861462  0.02476895  0.29384689    -0.29700
H743        H  0.77073929  0.95496389  0.24470695     0.14500
H744        H  0.75760983  0.05915960  0.31124092     0.15100
C745        C  0.35749232  0.84909243  0.43749689    -0.14500
C746        C  0.37504512  0.90138871  0.44026585    -0.29700
H747        H  0.36101231  0.82817089  0.39858239     0.14500
H748        H  0.37144677  0.92518621  0.47715372     0.15100
C749        C  0.63882522  0.86717593  0.45466507    -0.14500
C750        C  0.60374410  0.85846815  0.41370659    -0.29700
H751        H  0.65873002  0.90697905  0.45802941     0.14500
H752        H  0.58449705  0.81882763  0.40784461     0.15100
C753        C  0.40410466  0.14861153  0.43723541    -0.14500
C754        C  0.35354486  0.16758650  0.43933651    -0.29700
H755        H  0.42974789  0.15197997  0.47303023     0.14500
H756        H  0.32701346  0.16189806  0.40445325     0.15100
C757        C  0.49335177  0.29993633  0.18542631    -0.14500
C758        C  0.52809066  0.26917018  0.21359480    -0.29700
H759        H  0.45778586  0.28050976  0.16690940     0.14500
H760        H  0.56550740  0.28792269  0.22893232     0.15100
C761        C  0.50611179  0.73546276  0.20302987    -0.14500
C762        C  0.46879640  0.76220708  0.23290658    -0.29700
H763        H  0.54120959  0.75826386  0.18666217     0.14500
H764        H  0.43216136  0.74108339  0.24793171     0.15100
C765        C  0.65932958  0.15513614  0.04142470    -0.14500
C766        C  0.60818714  0.13486117  0.04529920    -0.29700
H767        H  0.68344373  0.15707476  0.07838432     0.14500
H768        H  0.58131694  0.13545184  0.01058250     0.15100
C769        C  0.60697279  0.86643403  0.06605909    -0.14500
C770        C  0.63632149  0.88913067  0.02540341    -0.29700
H771        H  0.61040130  0.82356015  0.07457873     0.14500
H772        H  0.63389344  0.93283726  0.02051226     0.15100
C773        C  0.31793188  0.87346594  0.07119658    -0.14500
C774        C  0.32770400  0.92568079  0.08186891    -0.29700
H775        H  0.33152196  0.84391204  0.10056841     0.14500
H776        H  0.31738041  0.95593679  0.05186585     0.15100
C777        C  0.34475494  0.11687033  0.07554031    -0.14500
C778        C  0.34156938  0.16548909  0.05084232    -0.29700
H779        H  0.31835576  0.08346623  0.06227080     0.14500
H780        H  0.37042359  0.19763904  0.06242409     0.15100
C781        C  0.70958988  0.20805965  0.49010835    -0.14500
C782        C  0.74158021  0.24244767  0.51796862    -0.29700
H783        H  0.72812359  0.18370622  0.45819903     0.14500
H784        H  0.72462844  0.26420664  0.55234640     0.15100
C785        C  0.62446082  0.16076624  0.46136720    -0.14500
C786        C  0.62964566  0.16500517  0.40684842    -0.29700
H787        H  0.60306988  0.12482494  0.47719465     0.14500
H788        H  0.65187513  0.19966990  0.38944466     0.15100
C789        C  0.62122911  0.29655830  0.53606413    -0.14500
C790        C  0.62144344  0.25692981  0.49700032    -0.29700
H791        H  0.63934669  0.28970194  0.57547011     0.14500
H792        H  0.60044569  0.26390422  0.45903903     0.15100
C793        C  0.22831798  0.03005371  0.73751659    -0.14500
C794        C  0.20537545  0.01388240  0.69030047    -0.29700
H795        H  0.20446490  0.04630641  0.77102427     0.14500
H796        H  0.23215359  0.00289861  0.65651917     0.15100
C797        C  0.76965069  0.01799057  0.69899144    -0.14500
C798        C  0.73532909  0.98081160  0.72097906    -0.29700
H799        H  0.75284344  0.05678814  0.68802021     0.14500
H800        H  0.74981647  0.94056078  0.72904708     0.15100
C801        C  0.36469148  0.16794165  0.58651201    -0.14500
C802        C  0.34091920  0.15574871  0.53838022    -0.29700
H803        H  0.37082356  0.20993239  0.59850785     0.14500
H804        H  0.33128324  0.11325522  0.53003072     0.15100
C805        C  0.63782729  0.17766627  0.55909316    -0.14500
C806        C  0.58608544  0.16623516  0.57508547    -0.29700
H807        H  0.67150161  0.16330550  0.58300424     0.14500
H808        H  0.55333824  0.17916325  0.54903638     0.15100
C809        C  0.62435387  0.85650572  0.55276637    -0.14500
C810        C  0.57608920  0.88093326  0.55232293    -0.29700
H811        H  0.64961050  0.86023614  0.58879919     0.14500
H812        H  0.55126487  0.87999348  0.51594238     0.15100
C813        C  0.38580401  0.86634406  0.55905532    -0.14500
C814        C  0.33735749  0.84786008  0.53986344    -0.29700
H815        H  0.42238057  0.85721686  0.53563523     0.14500
H816        H  0.30027911  0.85900662  0.56139825     0.15100
C817        C  0.51184544  0.26085582  0.77287509    -0.14500
C818        C  0.47542600  0.29283762  0.79740036    -0.29700
H819        H  0.55007956  0.27871245  0.75754122     0.14500
H820        H  0.43799547  0.27471781  0.81440825     0.15100
C821        C  0.45859326  0.75467184  0.76213080    -0.14500
C822        C  0.49901550  0.72968310  0.78827841    -0.29700
H823        H  0.42082017  0.73264015  0.75294600     0.14500
H824        H  0.53506539  0.75368140  0.79969340     0.15100
C825        C  0.34126576  0.15683325  0.94997542    -0.14500
C826        C  0.36113726  0.10735119  0.94598180    -0.29700
H827        H  0.35038692  0.18544650  0.91722530     0.14500
H828        H  0.35394133  0.07778733  0.97789575     0.15100
C829        C  0.33323656  0.87741185  0.91880716    -0.14500
C830        C  0.34103592  0.87580098  0.97310129    -0.29700
H831        H  0.29596746  0.85955189  0.90240848     0.14500
H832        H  0.37868751  0.89454031  0.98805940     0.15100
C833        C  0.65140987  0.87505047  0.92868168    -0.14500
C834        C  0.59998308  0.86147221  0.91468660    -0.29700
H835        H  0.67532448  0.90225253  0.90221192     0.14500
H836        H  0.57466037  0.83718395  0.94254021     0.15100
C837        C  0.63771911  0.10191297  0.92983923    -0.14500
C838        C  0.65498454  0.15431175  0.93724458    -0.29700
H839        H  0.64819122  0.07203297  0.96011340     0.14500
H840        H  0.64235962  0.18486029  0.90861890     0.15100
loop_ 
_geom_bond_atom_site_label_1 
_geom_bond_atom_site_label_2 
_geom_bond_distance 
_geom_bond_site_symmetry_2 
_ccdc_geom_bond_type 
O1          Zr37   2.488   1_545  S
O1           C12   1.302       .  A
O2          Zr36   2.426       .  S
O2           C13   1.290       .  A
O3           Zr9   2.482       .  S
O3           C14   1.301   1_545  A
O4           Zr9   2.432       .  S
O4           C15   1.290       .  A
O5          Zr39   2.456       .  S
O5           C15   1.296       .  A
O6          Zr38   2.407       .  S
O6           C14   1.284       .  A
O7           Zr9   2.457       .  S
O7           C13   1.294       .  A
O8           Zr9   2.441       .  S
O8           C12   1.291       .  A
Zr9          O10   2.341       .  S
Zr9          O11   2.349   1_545  S
Zr9          O19   2.365       .  S
Zr9          O17   2.341       .  S
O10         Zr36   2.327       .  S
O10         Zr39   2.327       .  S
O11         Zr37   2.342       .  S
O11         Zr38   2.328       .  S
C12         C837   1.489       .  S
C13         C806   1.469       .  S
C14         C798   1.479       .  S
C15         C817   1.474       .  S
H16          O17   0.966       .  S
O17         Zr36   2.357       .  S
O17         Zr38   2.365   1_545  S
H18          O19   0.965       .  S
O19         Zr37   2.347   1_545  S
O19         Zr39   2.352       .  S
O20         Zr36   2.439   1_565  S
O20          C43   1.292       .  A
O21         Zr37   2.500       .  S
O21          C44   1.304       .  A
O22         Zr38   2.419       .  S
O22          C45   1.290       .  A
O23         Zr39   2.454       .  S
O23          C46   1.294       .  A
O24         Zr39   2.440       .  S
O24          C47   1.293       .  A
O25         Zr38   2.455       .  S
O25          C48   1.293       .  A
O26         Zr40   2.455       .  S
O26          C49   1.294       .  A
O27         Zr40   2.443       .  S
O27          C50   1.294   1_565  A
O28         Zr38   2.434       .  S
O28          C49   1.292       .  A
O29         Zr39   2.432       .  S
O29          C50   1.290       .  A
O30         Zr36   2.426   1_565  S
O30          C45   1.290       .  A
O31         Zr37   2.408       .  S
O31          C48   1.285       .  A
O32         Zr37   2.377   1_545  S
O32          C47   1.280       .  A
O33         Zr36   2.480       .  S
O33          C46   1.300       .  A
O34         Zr40   2.472       .  S
O34          C43   1.296       .  A
O35         Zr40   2.430       .  S
O35          C44   1.290       .  A
Zr36         O42   2.335   1_545  S
Zr36         O54   2.321       .  S
Zr37         O41   2.342   1_565  S
Zr37         O52   2.313       .  S
Zr38         O42   2.333       .  S
Zr38         O52   2.328       .  S
Zr39         O41   2.342       .  S
Zr39         O54   2.366       .  S
Zr40         O41   2.351   1_565  S
Zr40         O42   2.315       .  S
Zr40         O54   2.357   1_565  S
Zr40         O52   2.349       .  S
C43         C813   1.485       .  S
C44         C829   1.496       .  S
C45         C810   1.454       .  S
C46         C801   1.493       .  S
C47         C826   1.445       .  S
C48         C834   1.460       .  S
C49         C821   1.477       .  S
C50         C793   1.458       .  S
H51          O52   0.963       .  S
H53          O54   0.964       .  S
C55         C781   1.524       .  S
C55         C785   1.538       .  S
C55         C790   1.539       .  S
C55         C805   1.533       .  S
O56         Zr92   2.437       .  S
O56          C67   1.291       .  A
O57         Zr91   2.413       .  S
O57          C68   1.287       .  A
O58         Zr64   2.386       .  S
O58          C69   1.282       .  A
O59         Zr64   2.487   1_565  S
O59          C70   1.301       .  A
O60         Zr94   2.407       .  S
O60          C70   1.283       .  A
O61         Zr93   2.459       .  S
O61          C69   1.297       .  A
O62         Zr64   2.443   1_565  S
O62          C68   1.293       .  A
O63         Zr64   2.457       .  S
O63          C67   1.298       .  A
Zr64         O65   2.327   1_545  S
Zr64         O66   2.356       .  S
Zr64         O74   2.309       .  S
Zr64         O72   2.348       .  S
O65         Zr91   2.348       .  S
O65         Zr94   2.330       .  S
O66         Zr92   2.338       .  S
O66         Zr93   2.338       .  S
C67         C786   1.485       .  S
C68         C746   1.462       .  S
C69         C753   1.452       .  S
C70         C750   1.476       .  S
H71          O72   0.964       .  S
O72         Zr91   2.338   1_545  S
O72         Zr93   2.352       .  S
H73          O74   0.966       .  S
O74         Zr92   2.364       .  S
O74         Zr94   2.344   1_545  S
O75         Zr91   2.436       .  S
O75          C98   1.291       .  A
O76         Zr92   2.463       .  S
O76          C99   1.298       .  A
O77         Zr93   2.426       .  S
O77         C100   1.288       .  A
O78         Zr94   2.427       .  S
O78         C101   1.291       .  A
O79         Zr94   2.436       .  S
O79         C102   1.291       .  A
O80         Zr93   2.464       .  S
O80         C103   1.296       .  A
O81         Zr95   2.452       .  S
O81         C104   1.294       .  A
O82         Zr95   2.503   1_565  S
O82         C105   1.305       .  A
O83         Zr93   2.460       .  S
O83         C104   1.294       .  A
O84         Zr94   2.396       .  S
O84         C105   1.282       .  A
O85         Zr91   2.483       .  S
O85         C100   1.300   1_565  A
O86         Zr92   2.453       .  S
O86         C103   1.294       .  A
O87         Zr92   2.459       .  S
O87         C102   1.298   1_545  A
O88         Zr91   2.458       .  S
O88         C101   1.295       .  A
O89         Zr95   2.397   1_565  S
O89          C98   1.284       .  A
O90         Zr95   2.399       .  S
O90          C99   1.284       .  A
Zr91         O97   2.323   1_565  S
Zr91        O109   2.355       .  S
Zr92         O96   2.354       .  S
Zr92        O107   2.340       .  S
Zr93         O97   2.329       .  S
Zr93        O107   2.337       .  S
Zr94         O96   2.349   1_565  S
Zr94        O109   2.348       .  S
Zr95         O96   2.340       .  S
Zr95         O97   2.336       .  S
Zr95        O109   2.323   1_545  S
Zr95        O107   2.335       .  S
C98         C774   1.448       .  S
C99         C766   1.465       .  S
C100        C737   1.485       .  S
C101        C762   1.477       .  S
C102        C741   1.471       .  S
C103        C758   1.485       .  S
C104        C777   1.479       .  S
C105        C769   1.483       .  S
H106        O107   0.964       .  S
H108        O109   0.966       .  S
C110        C730   1.520       .  S
C110        C734   1.528       .  S
C110        C773   1.517       .  S
C110        C830   1.552   1_554  S
C111        C722   1.545       .  S
C111        C725   1.528       .  S
C111        C770   1.535   1_556  S
C111        C833   1.522       .  S
C112        C713   1.520       .  S
C112        C717   1.534       .  S
C112        C749   1.539       .  S
C112        C809   1.519       .  S
C113        C705   1.520       .  S
C113        C709   1.535   1_556  S
C113        C778   1.544   1_556  S
C113        C825   1.517       .  S
C114        C697   1.534       .  S
C114        C701   1.524       .  S
C114        C765   1.538   1_556  S
C114        C838   1.548       .  S
C115        C690   1.526       .  S
C115        C693   1.538       .  S
C115        C754   1.521       .  S
C115        C802   1.550       .  S
C116        C682   1.521       .  S
C116        C685   1.533       .  S
C116        C745   1.530       .  S
C116        C814   1.553       .  S
O117       Zr153   2.415       .  S
O117        C128   1.287       .  A
O118       Zr152   2.442       .  S
O118        C129   1.293   1_455  A
O119       Zr125   2.404       .  S
O119        C130   1.284       .  A
O120       Zr125   2.446       .  S
O120        C131   1.292       .  A
O121       Zr155   2.464       .  S
O121        C131   1.297       .  A
O122       Zr154   2.469       .  S
O122        C130   1.301       .  A
O123       Zr125   2.468       .  S
O123        C129   1.297       .  A
O124       Zr125   2.459       .  S
O124        C128   1.297       .  A
Zr125       O126   2.324       .  S
Zr125       O127   2.346       .  S
Zr125       O135   2.348       .  S
Zr125       O133   2.358       .  S
O126       Zr152   2.327   1_655  S
O126       Zr155   2.329       .  S
O127       Zr153   2.344       .  S
O127       Zr154   2.348       .  S
C128        C714   1.471       .  S
C129        C645   1.492       .  S
C130        C657   1.473       .  S
C131        C673   1.485       .  S
H132        O133   0.960       .  S
O133       Zr152   2.340   1_655  S
O133       Zr154   2.335       .  S
H134        O135   0.979       .  S
O135       Zr153   2.350       .  S
O135       Zr155   2.332       .  S
O136       Zr152   2.419       .  S
O136        C159   1.287       .  A
O137       Zr153   2.439       .  S
O137        C160   1.290       .  A
O138       Zr154   2.464   1_455  S
O138        C161   1.298       .  A
O139       Zr155   2.406   1_455  S
O139        C162   1.286       .  A
O140       Zr155   2.398       .  S
O140        C163   1.284       .  A
O141       Zr154   2.471       .  S
O141        C164   1.301       .  A
O142       Zr156   2.425       .  S
O142        C165   1.288       .  A
O143       Zr156   2.425       .  S
O143        C166   1.288       .  A
O144       Zr154   2.459   1_455  S
O144        C165   1.296       .  A
O145       Zr155   2.481   1_455  S
O145        C166   1.302       .  A
O146       Zr152   2.443       .  S
O146        C161   1.291       .  A
O147       Zr153   2.431       .  S
O147        C164   1.289       .  A
O148       Zr153   2.462       .  S
O148        C163   1.295       .  A
O149       Zr152   2.435       .  S
O149        C162   1.290       .  A
O150       Zr156   2.467       .  S
O150        C159   1.298       .  A
O151       Zr156   2.474       .  S
O151        C160   1.298   1_455  A
Zr152       O158   2.334       .  S
Zr152       O170   2.364       .  S
Zr153       O157   2.330       .  S
Zr153       O168   2.355       .  S
Zr154       O158   2.334   1_655  S
Zr154       O168   2.345       .  S
Zr155       O157   2.335       .  S
Zr155       O170   2.333   1_655  S
Zr156       O157   2.334   1_455  S
Zr156       O158   2.337       .  S
Zr156       O170   2.365       .  S
Zr156       O168   2.355   1_455  S
C159        C681   1.469       .  S
C160        C641   1.478       .  S
C161        C653   1.485       .  S
C162        C677   1.450       .  S
C163        C669   1.457       .  S
C164        C661   1.487       .  S
C165        C650   1.466       .  S
C166        C666   1.489       .  S
H167        O168   0.975       .  S
H169        O170   0.967       .  S
O171       Zr207   2.491       .  S
O171        C182   1.302       .  A
O172       Zr206   2.484       .  S
O172        C183   1.299   1_455  A
O173       Zr179   2.453       .  S
O173        C184   1.295       .  A
O174       Zr179   2.440       .  S
O174        C185   1.291       .  A
O175       Zr209   2.411       .  S
O175        C185   1.286       .  A
O176       Zr208   2.396   1_655  S
O176        C184   1.283       .  A
O177       Zr179   2.399       .  S
O177        C183   1.283       .  A
O178       Zr179   2.367       .  S
O178        C182   1.278       .  A
Zr179       O180   2.329       .  S
Zr179       O181   2.325       .  S
Zr179       O189   2.339       .  S
Zr179       O187   2.325       .  S
O180       Zr206   2.315   1_655  S
O180       Zr209   2.328       .  S
O181       Zr207   2.339       .  S
O181       Zr208   2.334   1_655  S
C182        C782   1.461       .  S
C183        C605   1.478       .  S
C184        C630   1.461       .  S
C185        C614   1.454       .  S
H186        O187   0.966       .  S
O187       Zr206   2.344   1_655  S
O187       Zr208   2.358   1_655  S
H188        O189   0.968       .  S
O189       Zr207   2.347       .  S
O189       Zr209   2.330       .  S
O190       Zr206   2.417       .  S
O190        C213   1.288       .  A
O191       Zr207   2.472       .  S
O191        C214   1.298   1_655  A
O192       Zr208   2.469       .  S
O192        C215   1.301       .  A
O193       Zr209   2.451   1_455  S
O193        C216   1.294       .  A
O194       Zr209   2.457       .  S
O194        C217   1.296       .  A
O195       Zr208   2.425   1_655  S
O195        C218   1.290       .  A
O196       Zr210   2.434       .  S
O196        C219   1.290       .  A
O197       Zr210   2.428       .  S
O197        C220   1.291       .  A
O198       Zr208   2.447       .  S
O198        C219   1.293       .  A
O199       Zr209   2.380   1_455  S
O199        C220   1.281       .  A
O200       Zr206   2.400       .  S
O200        C215   1.284       .  A
O201       Zr207   2.444       .  S
O201        C218   1.294       .  A
O202       Zr207   2.449       .  S
O202        C217   1.292       .  A
O203       Zr206   2.436       .  S
O203        C216   1.289       .  A
O204       Zr210   2.473       .  S
O204        C213   1.300       .  A
O205       Zr210   2.457       .  S
O205        C214   1.296       .  A
Zr206       O212   2.353       .  S
Zr206       O224   2.339       .  S
Zr207       O211   2.347       .  S
Zr207       O222   2.370   1_655  S
Zr208       O212   2.298       .  S
Zr208       O222   2.352       .  S
Zr209       O211   2.337       .  S
Zr209       O224   2.336   1_655  S
Zr210       O211   2.347   1_455  S
Zr210       O212   2.329       .  S
Zr210       O224   2.339       .  S
Zr210       O222   2.337       .  S
C213        C689   1.475       .  S
C214        C601   1.492       .  S
C215        C625   1.471       .  S
C216        C618   1.464       .  S
C217        C609   1.476       .  S
C218        C633   1.467       .  S
C219        C638   1.471       .  S
C220        C621   1.432       .  S
H221        O222   0.967       .  S
H223        O224   0.961       .  S
C225        C594   1.535       .  S
C225        C597   1.517       .  S
C225        C613   1.521       .  S
C225        C658   1.530       .  S
C226        C585   1.532       .  S
C226        C589   1.532       .  S
C226        C617   1.543       .  S
C226        C654   1.557       .  S
C227        C582   1.521       .  S
C227        C634   1.535       .  S
C227        C670   1.536   1_545  S
C227        C742   1.520       .  S
C228        C577   1.532       .  S
C228        C629   1.534       .  S
C228        C674   1.547   1_545  S
C228        C797   1.529       .  S
C229        C569   1.541       .  S
C229        C573   1.534       .  S
C229        C610   1.540       .  S
C229        C662   1.545       .  S
C230        C561   1.515       .  S
C230        C565   1.526       .  S
C230        C622   1.517       .  S
C230        C649   1.536       .  S
C231        C557   1.536       .  S
C231        C637   1.533       .  S
C231        C665   1.546   1_545  S
C231        C738   1.540       .  S
C232        C554   1.524       .  S
C232        C626   1.522       .  S
C232        C678   1.516   1_545  S
C232        C794   1.521       .  S
O233       Zr269   2.468       .  S
O233        C244   1.299   1_556  A
O234       Zr268   2.420       .  S
O234        C245   1.287       .  A
O235       Zr241   2.450       .  S
O235        C246   1.293       .  A
O236       Zr241   2.406       .  S
O236        C247   1.285       .  A
O237       Zr271   2.494   1_554  S
O237        C247   1.305       .  A
O238       Zr270   2.423   1_554  S
O238        C246   1.289       .  A
O239       Zr241   2.492       .  S
O239        C245   1.302       .  A
O240       Zr241   2.462       .  S
O240        C244   1.295       .  A
Zr241       O242   2.342       .  S
Zr241       O243   2.336   1_554  S
Zr241       O251   2.369   1_554  S
Zr241       O249   2.339       .  S
O242       Zr268   2.345       .  S
O242       Zr271   2.339   1_554  S
O243       Zr269   2.347       .  S
O243       Zr270   2.331       .  S
C244        C721   1.497       .  S
C245        C570   1.488       .  S
C246        C525   1.466       .  S
C247        C549   1.483       .  S
H248        O249   0.965       .  S
O249       Zr268   2.347       .  S
O249       Zr270   2.343   1_554  S
H250        O251   0.964       .  S
O251       Zr269   2.349       .  S
O251       Zr271   2.357       .  S
O252       Zr268   2.462       .  S
O252        C275   1.297   1_554  A
O253       Zr269   2.475       .  S
O253        C276   1.298       .  A
O254       Zr270   2.442   1_554  S
O254        C277   1.293       .  A
O255       Zr271   2.473   1_554  S
O255        C278   1.300       .  A
O256       Zr271   2.490       .  S
O256        C279   1.303       .  A
O257       Zr270   2.430       .  S
O257        C280   1.290       .  A
O258       Zr272   2.486       .  S
O258        C281   1.300       .  A
O259       Zr272   2.419       .  S
O259        C282   1.288       .  A
O260       Zr270   2.426       .  S
O260        C281   1.289       .  A
O261       Zr271   2.472       .  S
O261        C282   1.299       .  A
O262       Zr268   2.418       .  S
O262        C277   1.286       .  A
O263       Zr269   2.431       .  S
O263        C280   1.291       .  A
O264       Zr269   2.444       .  S
O264        C279   1.292       .  A
O265       Zr268   2.441       .  S
O265        C278   1.292       .  A
O266       Zr272   2.438       .  S
O266        C275   1.290       .  A
O267       Zr272   2.426       .  S
O267        C276   1.291       .  A
Zr268       O274   2.339   1_554  S
Zr268       O286   2.332   1_554  S
Zr269       O273   2.332       .  S
Zr269       O284   2.350       .  S
Zr270       O274   2.330       .  S
Zr270       O284   2.350       .  S
Zr271       O273   2.339       .  S
Zr271       O286   2.374       .  S
Zr272       O273   2.353       .  S
Zr272       O274   2.326       .  S
Zr272       O286   2.364       .  S
Zr272       O284   2.339       .  S
C275        C698   1.487       .  S
C276        C593   1.489       .  S
C277        C521   1.459       .  S
C278        C537   1.489       .  S
C279        C545   1.498       .  S
C280        C530   1.461       .  S
C281        C533   1.481       .  S
C282        C541   1.465       .  S
H283        O284   0.966       .  S
H285        O286   0.966       .  S
O287       Zr323   2.448       .  S
O287        C298   1.296   1_554  A
O288       Zr322   2.468       .  S
O288        C299   1.297       .  A
O289       Zr295   2.450       .  S
O289        C300   1.295       .  A
O290       Zr295   2.495       .  S
O290        C301   1.301       .  A
O291       Zr325   2.425       .  S
O291        C301   1.290       .  A
O292       Zr324   2.442   1_556  S
O292        C300   1.294       .  A
O293       Zr295   2.425       .  S
O293        C299   1.290       .  A
O294       Zr295   2.412       .  S
O294        C298   1.285       .  A
Zr295       O296   2.335       .  S
Zr295       O297   2.357       .  S
Zr295       O305   2.328       .  S
Zr295       O303   2.361       .  S
O296       Zr322   2.351       .  S
O296       Zr325   2.334       .  S
O297       Zr323   2.318   1_556  S
O297       Zr324   2.344   1_556  S
C298        C729   1.472       .  S
C299        C586   1.483       .  S
C300        C509   1.466       .  S
C301        C501   1.483       .  S
H302        O303   0.961       .  S
O303       Zr322   2.306       .  S
O303       Zr324   2.352   1_556  S
H304        O305   0.962       .  S
O305       Zr323   2.339   1_556  S
O305       Zr325   2.359       .  S
O306       Zr322   2.457       .  S
O306        C329   1.297   1_556  A
O307       Zr323   2.410       .  S
O307        C330   1.285       .  A
O308       Zr324   2.430   1_556  S
O308        C331   1.289       .  A
O309       Zr325   2.481       .  S
O309        C332   1.303       .  A
O310       Zr325   2.436   1_554  S
O310        C333   1.292       .  A
O311       Zr324   2.422       .  S
O311        C334   1.288       .  A
O312       Zr326   2.396       .  S
O312        C335   1.283       .  A
O313       Zr326   2.492       .  S
O313        C336   1.300       .  A
O314       Zr324   2.474       .  S
O314        C335   1.302       .  A
O315       Zr325   2.435   1_554  S
O315        C336   1.291       .  A
O316       Zr322   2.428       .  S
O316        C331   1.289       .  A
O317       Zr323   2.475       .  S
O317        C334   1.297       .  A
O318       Zr323   2.417       .  S
O318        C333   1.288       .  A
O319       Zr322   2.369       .  S
O319        C332   1.278       .  A
O320       Zr326   2.411       .  S
O320        C329   1.286       .  A
O321       Zr326   2.444       .  S
O321        C330   1.295       .  A
Zr322       O328   2.324   1_556  S
Zr322       O340   2.341   1_556  S
Zr323       O327   2.369       .  S
Zr323       O338   2.332       .  S
Zr324       O328   2.317       .  S
Zr324       O338   2.343       .  S
Zr325       O327   2.337   1_556  S
Zr325       O340   2.323   1_556  S
Zr326       O327   2.306       .  S
Zr326       O328   2.356       .  S
Zr326       O340   2.326       .  S
Zr326       O338   2.366       .  S
C329        C706   1.470       .  S
C330        C562   1.468       .  S
C331        C505   1.462       .  S
C332        C490   1.463       .  S
C333        C498   1.450       .  S
C334        C514   1.481       .  S
C335        C518   1.472       .  S
C336        C493   1.490       .  S
H337        O338   0.969       .  S
H339        O340   0.957       .  S
C341        C486   1.538       .  S
C341        C502   1.544       .  S
C341        C546   1.557   1_455  S
C341        C646   1.534       .  S
C342        C481   1.532       .  S
C342        C489   1.524   1_655  S
C342        C542   1.526       .  S
C342        C606   1.538       .  S
C343        C477   1.524       .  S
C343        C510   1.530       .  S
C343        C529   1.534       .  S
C343        C822   1.523       .  S
C344        C474   1.517       .  S
C344        C513   1.551       .  S
C344        C526   1.532       .  S
C344        C761   1.520       .  S
C345        C469   1.539       .  S
C345        C494   1.558   1_655  S
C345        C538   1.555       .  S
C345        C602   1.541       .  S
C346        C465   1.525       .  S
C346        C497   1.514       .  S
C346        C550   1.534   1_455  S
C346        C642   1.547       .  S
C347        C461   1.519       .  S
C347        C506   1.520       .  S
C347        C534   1.546       .  S
C347        C818   1.520       .  S
C348        C457   1.524       .  S
C348        C517   1.525       .  S
C348        C522   1.522       .  S
C348        C757   1.537       .  S
O349       Zr385   2.510       .  S
O349        C360   1.305       .  A
O350       Zr384   2.472       .  S
O350        C361   1.298       .  A
O351       Zr357   2.462       .  S
O351        C362   1.296       .  A
O352       Zr357   2.496       .  S
O352        C363   1.302       .  A
O353       Zr387   2.402       .  S
O353        C363   1.286       .  A
O354       Zr386   2.401       .  S
O354        C362   1.286       .  A
O355       Zr357   2.385       .  S
O355        C361   1.284       .  A
O356       Zr357   2.385       .  S
O356        C360   1.282       .  A
Zr357       O358   2.334       .  S
Zr357       O359   2.336       .  S
Zr357       O367   2.324       .  S
Zr357       O365   2.348       .  S
O358       Zr384   2.343       .  S
O358       Zr387   2.336       .  S
O359       Zr385   2.322       .  S
O359       Zr386   2.334       .  S
C360        C789   1.492       .  S
C361        C458   1.477       .  S
C362        C694   1.471       .  S
C363        C574   1.489       .  S
H364        O365   0.966       .  S
O365       Zr384   2.349       .  S
O365       Zr386   2.356       .  S
H366        O367   0.966       .  S
O367       Zr385   2.322       .  S
O367       Zr387   2.347       .  S
O368       Zr384   2.504       .  S
O368        C391   1.304       .  A
O369       Zr385   2.476       .  S
O369        C392   1.298       .  A
O370       Zr386   2.456       .  S
O370        C393   1.295       .  A
O371       Zr387   2.486       .  S
O371        C394   1.300       .  A
O372       Zr387   2.460       .  S
O372        C395   1.295       .  A
O373       Zr386   2.495       .  S
O373        C396   1.302       .  A
O374       Zr388   2.477       .  S
O374        C397   1.298       .  A
O375       Zr388   2.443       .  S
O375        C398   1.292       .  A
O376       Zr386   2.410       .  S
O376        C397   1.288       .  A
O377       Zr387   2.425       .  S
O377        C398   1.291       .  A
O378       Zr384   2.393       .  S
O378        C393   1.285       .  A
O379       Zr385   2.366       .  S
O379        C396   1.280       .  A
O380       Zr385   2.386       .  S
O380        C395   1.285       .  A
O381       Zr384   2.374       .  S
O381        C394   1.282       .  A
O382       Zr388   2.394       .  S
O382        C391   1.284       .  A
O383       Zr388   2.392       .  S
O383        C392   1.286       .  A
Zr384       O390   2.330       .  S
Zr384       O402   2.326       .  S
Zr385       O389   2.343       .  S
Zr385       O400   2.344       .  S
Zr386       O390   2.342       .  S
Zr386       O400   2.328       .  S
Zr387       O389   2.345       .  S
Zr387       O402   2.334       .  S
Zr388       O389   2.345       .  S
Zr388       O390   2.324       .  S
Zr388       O402   2.339       .  S
Zr388       O400   2.332       .  S
C391        C686   1.492       .  S
C392        C478   1.480       .  S
C393        C566   1.468       .  S
C394        C473   1.483       .  S
C395        C598   1.471       .  S
C396        C462   1.484       .  S
C397        C590   1.491       .  S
C398        C718   1.473       .  S
H399        O400   0.962       .  S
H401        O402   0.965       .  S
O403       Zr439   2.478       .  S
O403        C414   1.299       .  A
O404       Zr438   2.452   1_455  S
O404        C415   1.293       .  A
O405       Zr411   2.499       .  S
O405        C416   1.303       .  A
O406       Zr411   2.479   1_545  S
O406        C417   1.300       .  A
O407       Zr441   2.400       .  S
O407        C417   1.286   1_554  A
O408       Zr440   2.407       .  S
O408        C416   1.287   1_655  A
O409       Zr411   2.405   1_545  S
O409        C415   1.288       .  A
O410       Zr411   2.408       .  S
O410        C414   1.288   1_556  A
Zr411       O412   2.347   1_565  S
Zr411       O413   2.328       .  S
Zr411       O421   2.345   1_566  S
Zr411       O419   2.337   1_455  S
O412       Zr438   2.352   1_455  S
O412       Zr441   2.355   1_556  S
O413       Zr439   2.329   1_556  S
O413       Zr440   2.336   1_455  S
C414        C733   1.485       .  S
C415        C553   1.475       .  S
C416        C485   1.495       .  S
C417        C710   1.480       .  S
H418        O419   0.969       .  S
O419       Zr438   2.348   1_565  S
O419       Zr440   2.334       .  S
H420        O421   0.967       .  S
O421       Zr439   2.330   1_545  S
O421       Zr441   2.333       .  S
O422       Zr438   2.481       .  S
O422        C445   1.297       .  A
O423       Zr439   2.462   1_655  S
O423        C446   1.296       .  A
O424       Zr440   2.495       .  S
O424        C447   1.301       .  A
O425       Zr441   2.463   1_556  S
O425        C448   1.296       .  A
O426       Zr441   2.499       .  S
O426        C449   1.303       .  A
O427       Zr440   2.478   1_554  S
O427        C450   1.298       .  A
O428       Zr442   2.477   1_565  S
O428        C451   1.299       .  A
O429       Zr442   2.512       .  S
O429        C452   1.306       .  A
O430       Zr440   2.403       .  S
O430        C451   1.287   1_556  A
O431       Zr441   2.403       .  S
O431        C452   1.286   1_455  A
O432       Zr438   2.401       .  S
O432        C447   1.287   1_545  A
O433       Zr439   2.384   1_655  S
O433        C450   1.284       .  A
O434       Zr439   2.394       .  S
O434        C449   1.284   1_565  A
O435       Zr438   2.413       .  S
O435        C448   1.290   1_655  A
O436       Zr442   2.389       .  S
O436        C445   1.285   1_554  A
O437       Zr442   2.372       .  S
O437        C446   1.282   1_545  A
Zr438       O444   2.334       .  S
Zr438       O456   2.329       .  S
Zr439       O443   2.340   1_465  S
Zr439       O454   2.344   1_455  S
Zr440       O444   2.347   1_565  S
Zr440       O454   2.349   1_556  S
Zr441       O443   2.331   1_455  S
Zr441       O456   2.345   1_454  S
Zr442       O443   2.340       .  S
Zr442       O444   2.341   1_554  S
Zr442       O456   2.317   1_554  S
Zr442       O454   2.353   1_545  S
C445        C702   1.488       .  S
C446        C581   1.461       .  S
C447        C578   1.493       .  S
C448        C482   1.480       .  S
C449        C558   1.490       .  S
C450        C466   1.480       .  S
C451        C726   1.481       .  S
C452        C470   1.499       .  S
H453        O454   0.977       .  S
H455        O456   0.970       .  S
C457        C458   1.359       .  D
C457        H459   1.086       .  S
C458        H460   1.084       .  S
C461        C462   1.363       .  D
C461        H463   1.087       .  S
C462        H464   1.086       .  S
C465        C466   1.358   1_455  D
C465        H467   1.088       .  S
C466        H468   1.084       .  S
C469        C470   1.366       .  D
C469        H471   1.086   1_655  S
C470        H472   1.086       .  S
C473        C474   1.359       .  D
C473        H475   1.086       .  S
C474        H476   1.087       .  S
C477        C478   1.356       .  D
C477        H479   1.087       .  S
C478        H480   1.084       .  S
C481        C482   1.355   1_655  D
C481        H483   1.086       .  S
C482        H484   1.083       .  S
C485        C486   1.360       .  D
C485        H487   1.086       .  S
C486        H488   1.085   1_455  S
C489        C490   1.328       .  D
C489        H491   1.089       .  S
C490        H492   1.088       .  S
C493        C494   1.352       .  D
C493        H495   1.087       .  S
C494        H496   1.087       .  S
C497        C498   1.339       .  D
C497        H499   1.090       .  S
C498        H500   1.087       .  S
C501        C502   1.347       .  D
C501        H503   1.088       .  S
C502        H504   1.087       .  S
C505        C506   1.342       .  D
C505        H507   1.086       .  S
C506        H508   1.089       .  S
C509        C510   1.346       .  D
C509        H511   1.087       .  S
C510        H512   1.087       .  S
C513        C514   1.349       .  D
C513        H515   1.088       .  S
C514        H516   1.084       .  S
C517        C518   1.334       .  D
C517        H519   1.088       .  S
C518        H520   1.087       .  S
C521        C522   1.344       .  D
C521        H523   1.087       .  S
C522        H524   1.089       .  S
C525        C526   1.345       .  D
C525        H527   1.087       .  S
C526        H528   1.087       .  S
C529        C530   1.346       .  D
C529        H531   1.087       .  S
C530        H532   1.084       .  S
C533        C534   1.349       .  D
C533        H535   1.087       .  S
C534        H536   1.087       .  S
C537        C538   1.364       .  D
C537        H539   1.081       .  S
C538        H540   1.086       .  S
C541        C542   1.350       .  D
C541        H543   1.087       .  S
C542        H544   1.089       .  S
C545        C546   1.353       .  D
C545        H547   1.085       .  S
C546        H548   1.088       .  S
C549        C550   1.335       .  D
C549        H551   1.087       .  S
C550        H552   1.089       .  S
C553        C554   1.353       .  D
C553        H555   1.083       .  S
C554        H556   1.088   1_545  S
C557        C558   1.364       .  D
C557        H559   1.087   1_545  S
C558        H560   1.084       .  S
C561        C562   1.340       .  D
C561        H563   1.088       .  S
C562        H564   1.087       .  S
C565        C566   1.356       .  D
C565        H567   1.087       .  S
C566        H568   1.082       .  S
C569        C570   1.346       .  D
C569        H571   1.088       .  S
C570        H572   1.083       .  S
C573        C574   1.363       .  D
C573        H575   1.087       .  S
C574        H576   1.084       .  S
C577        C578   1.358   1_545  D
C577        H579   1.088       .  S
C578        H580   1.083       .  S
C581        C582   1.355   1_565  D
C581        H583   1.081       .  S
C582        H584   1.089       .  S
C585        C586   1.358       .  D
C585        H587   1.087       .  S
C586        H588   1.087       .  S
C589        C590   1.356       .  D
C589        H591   1.086       .  S
C590        H592   1.086       .  S
C593        C594   1.356       .  D
C593        H595   1.084       .  S
C594        H596   1.088       .  S
C597        C598   1.355       .  D
C597        H599   1.088       .  S
C598        H600   1.083       .  S
C601        C602   1.357   1_455  D
C601        H603   1.087       .  S
C602        H604   1.087       .  S
C605        C606   1.348       .  D
C605        H607   1.086       .  S
C606        H608   1.087   1_655  S
C609        C610   1.357       .  D
C609        H611   1.088       .  S
C610        H612   1.086       .  S
C613        C614   1.340       .  D
C613        H615   1.090       .  S
C614        H616   1.087       .  S
C617        C618   1.346       .  D
C617        H619   1.088       .  S
C618        H620   1.086       .  S
C621        C622   1.327       .  D
C621        H623   1.077       .  S
C622        H624   1.089       .  S
C625        C626   1.334       .  D
C625        H627   1.087       .  S
C626        H628   1.088       .  S
C629        C630   1.338       .  D
C629        H631   1.089       .  S
C630        H632   1.084       .  S
C633        C634   1.345       .  D
C633        H635   1.082       .  S
C634        H636   1.088       .  S
C637        C638   1.345       .  D
C637        H639   1.088       .  S
C638        H640   1.087       .  S
C641        C642   1.357   1_655  D
C641        H643   1.083       .  S
C642        H644   1.087       .  S
C645        C646   1.354   1_655  D
C645        H647   1.085       .  S
C646        H648   1.087       .  S
C649        C650   1.345       .  D
C649        H651   1.088       .  S
C650        H652   1.081       .  S
C653        C654   1.362       .  D
C653        H655   1.072       .  S
C654        H656   1.087       .  S
C657        C658   1.335       .  D
C657        H659   1.084       .  S
C658        H660   1.088       .  S
C661        C662   1.343       .  D
C661        H663   1.086       .  S
C662        H664   1.088       .  S
C665        C666   1.343       .  D
C665        H667   1.088   1_565  S
C666        H668   1.087       .  S
C669        C670   1.343       .  D
C669        H671   1.088       .  S
C670        H672   1.087       .  S
C673        C674   1.356       .  D
C673        H675   1.087       .  S
C674        H676   1.086       .  S
C677        C678   1.334       .  D
C677        H679   1.088       .  S
C678        H680   1.089       .  S
C681        C682   1.342       .  D
C681        H683   1.087       .  S
C682        H684   1.088       .  S
C685        C686   1.365       .  D
C685        H687   1.087       .  S
C686        H688   1.086       .  S
C689        C690   1.344       .  D
C689        H691   1.086       .  S
C690        H692   1.088       .  S
C693        C694   1.357       .  D
C693        H695   1.086       .  S
C694        H696   1.082       .  S
C697        C698   1.346       .  D
C697        H699   1.089   1_556  S
C698        H700   1.084       .  S
C701        C702   1.355       .  D
C701        H703   1.088   1_556  S
C702        H704   1.083       .  S
C705        C706   1.340   1_556  D
C705        H707   1.088       .  S
C706        H708   1.086       .  S
C709        C710   1.360   1_554  D
C709        H711   1.087       .  S
C710        H712   1.083       .  S
C713        C714   1.343       .  D
C713        H715   1.087       .  S
C714        H716   1.087       .  S
C717        C718   1.350       .  D
C717        H719   1.087       .  S
C718        H720   1.084       .  S
C721        C722   1.353   1_554  D
C721        H723   1.086       .  S
C722        H724   1.088       .  S
C725        C726   1.359   1_556  D
C725        H727   1.088       .  S
C726        H728   1.084       .  S
C729        C730   1.337   1_556  D
C729        H731   1.084       .  S
C730        H732   1.088       .  S
C733        C734   1.355       .  D
C733        H735   1.086       .  S
C734        H736   1.086   1_554  S
C737        C738   1.345       .  D
C737        H739   1.084       .  S
C738        H740   1.087   1_545  S
C741        C742   1.346   1_565  D
C741        H743   1.087       .  S
C742        H744   1.089       .  S
C745        C746   1.351       .  D
C745        H747   1.088       .  S
C746        H748   1.081       .  S
C749        C750   1.344       .  D
C749        H751   1.088       .  S
C750        H752   1.084       .  S
C753        C754   1.338       .  D
C753        H755   1.088       .  S
C754        H756   1.088       .  S
C757        C758   1.355       .  D
C757        H759   1.087       .  S
C758        H760   1.086       .  S
C761        C762   1.351       .  D
C761        H763   1.087       .  S
C762        H764   1.086       .  S
C765        C766   1.339       .  D
C765        H767   1.089       .  S
C766        H768   1.084       .  S
C769        C770   1.337       .  D
C769        H771   1.085       .  S
C770        H772   1.090       .  S
C773        C774   1.330       .  D
C773        H775   1.089       .  S
C774        H776   1.088       .  S
C777        C778   1.351       .  D
C777        H779   1.085       .  S
C778        H780   1.087       .  S
C781        C782   1.332       .  D
C781        H783   1.088       .  S
C782        H784   1.083       .  S
C785        C786   1.346       .  D
C785        H787   1.088       .  S
C786        H788   1.087       .  S
C789        C790   1.367       .  D
C789        H791   1.085       .  S
C790        H792   1.086       .  S
C793        C794   1.348       .  D
C793        H795   1.085       .  S
C794        H796   1.089       .  S
C797        C798   1.337   1_545  D
C797        H799   1.089       .  S
C798        H800   1.085       .  S
C801        C802   1.353       .  D
C801        H803   1.084       .  S
C802        H804   1.088       .  S
C805        C806   1.345       .  D
C805        H807   1.087       .  S
C806        H808   1.088       .  S
C809        C810   1.344       .  D
C809        H811   1.088       .  S
C810        H812   1.086       .  S
C813        C814   1.350       .  D
C813        H815   1.087       .  S
C814        H816   1.087       .  S
C817        C818   1.344       .  D
C817        H819   1.087       .  S
C818        H820   1.088       .  S
C821        C822   1.352       .  D
C821        H823   1.086       .  S
C822        H824   1.089       .  S
C825        C826   1.331       .  D
C825        H827   1.088       .  S
C826        H828   1.081       .  S
C829        C830   1.349       .  D
C829        H831   1.084       .  S
C830        H832   1.088       .  S
C833        C834   1.344       .  D
C833        H835   1.089       .  S
C834        H836   1.087       .  S
C837        C838   1.362       .  D
C837        H839   1.087       .  S
C838        H840   1.086       .  S
