geometry optimzed in LAMMPS
_audit_creation_date              2020-11-30 
_audit_creation_method            'lammps2cif' 
_symmetry_space_group_name_H-M    'P1' 
_symmetry_Int_Tables_number       1 
_symmetry_cell_setting            triclinic 
loop_ 
_symmetry_equiv_pos_as_xyz 
  x,y,z 
_cell_length_a                    29.07632571 
_cell_length_b                    35.91930209623644 
_cell_length_c                    47.10164118974999 
_cell_angle_alpha                 90.34798423185595 
_cell_angle_beta                  89.80761485125014 
_cell_angle_gamma                 89.96283565676826 
loop_ 
_atom_site_label 
_atom_site_type_symbol 
_atom_site_fract_x 
_atom_site_fract_y 
_atom_site_fract_z 
_atom_site_charge 
C1          C  0.70480007  0.11599921  0.37586011     0.02500
C2          C  0.70372164  0.07666821  0.37660750     0.02500
C3          C  0.73473707  0.05737388  0.39400220    -0.18000
C4          C  0.76765524  0.07706224  0.40987899     0.02500
C5          C  0.77122259  0.11606479  0.40682080     0.02500
C6          C  0.73973232  0.13507326  0.38993312    -0.18000
H7          H  0.74093689  0.16523233  0.38900717     0.04500
H8          H  0.73243601  0.02736577  0.39575899     0.04500
O9          O  0.57294596  0.23856061  0.31734305    -0.80700
O10         O  0.42211090  0.27830796  0.23166105    -0.65400
O11         O  0.48356252  0.25741748  0.30055866    -1.12000
C12         C  0.46426273  0.13188098  0.27011042     1.06200
O13         O  0.36878002  0.23594953  0.24063787    -0.78600
O14         O  0.37505669  0.18876295  0.28410391    -0.66100
Ni15       Ni  0.53754712  0.28336854  0.31177424     1.34900
C16         C  0.38888478  0.19247849  0.30946702     0.85000
O17         O  0.45284385  0.32177768  0.27356463    -0.79100
O18         O  0.50666364  0.33047935  0.30733198    -0.89400
C19         C  0.38125767  0.26649085  0.22942370     0.84500
O20         O  0.56560176  0.28744306  0.27533345    -0.67600
O21         O  0.43284528  0.14372849  0.25363130    -0.86900
C22         C  0.55201747  0.28236237  0.25004544     0.85400
C23         C  0.47501287  0.34229398  0.29097215     1.06900
H24         H  0.47967503  0.21199356  0.24431408     0.38700
O25         O  0.45743886  0.21685390  0.25912852    -1.09500
O26         O  0.43063318  0.19928106  0.31580553    -0.66200
Ni27       Ni  0.48649083  0.20504795  0.29399349     1.26300
O28         O  0.51043840  0.27482127  0.24394034    -0.66400
O29         O  0.48777928  0.15256319  0.28665241    -0.78700
C30         C  0.56159840  0.20757285  0.32828159     0.84700
O31         O  0.52029491  0.19622344  0.32776784    -0.65900
Ni32       Ni  0.40336771  0.19108303  0.24778923     1.27400
Ni33       Ni  0.45461822  0.26926418  0.26576263     1.26100
H34         H  0.46130474  0.26224025  0.31540354     0.39300
O35         O  0.37709166  0.48781062  0.32812401    -0.80700
O36         O  0.50663937  0.44540356  0.22952242    -0.65400
O37         O  0.46036421  0.46707836  0.30297309    -1.12000
C38         C  0.47399030  0.09203722  0.27000450     1.06200
O39         O  0.56199373  0.48691340  0.23541949    -0.78600
O40         O  0.56448865  0.03753137  0.27688649    -0.66100
Ni41       Ni  0.40834582  0.44210241  0.31822877     1.34900
C42         C  0.55763124  0.03210079  0.30314840     0.85000
O43         O  0.48469122  0.40255391  0.27340727    -0.79100
O44         O  0.43561745  0.39413406  0.30998380    -0.89400
C45         C  0.54716527  0.45659985  0.22483241     0.84500
O46         O  0.37232744  0.43959971  0.28451440    -0.67600
O47         O  0.49949627  0.07932107  0.25012960    -0.86900
C48         C  0.38162442  0.44251705  0.25826902     0.85400
C49         C  0.46445372  0.38209056  0.29157169     1.06900
H50         H  0.45210799  0.01188214  0.24734705     0.38700
O51         O  0.47769155  0.00704594  0.25983411    -1.09500
O52         O  0.51838990  0.02373471  0.31330177    -0.66200
Ni53       Ni  0.45781545  0.01957099  0.29699908     1.26300
O54         O  0.42198572  0.44880772  0.24905038    -0.66400
O55         O  0.45677495  0.07226992  0.28983969    -0.78700
C56         C  0.39245418  0.01815692  0.33854204     0.84700
O57         O  0.43318483  0.02906681  0.33369714    -0.65900
Ni58       Ni  0.52864838  0.03209184  0.24347278     1.27400
Ni59       Ni  0.48160056  0.45481742  0.26603491     1.26100
H60         H  0.48528905  0.46177830  0.31586312     0.39300
C61         C  0.26696485  0.11178802  0.40082524     0.02500
C62         C  0.26596221  0.15097995  0.39894949     0.02500
C63         C  0.23424875  0.17126532  0.41539850    -0.18000
C64         C  0.20235938  0.15243840  0.43255242     0.02500
C65         C  0.20101167  0.11308814  0.43228848     0.02500
C66         C  0.23411669  0.09331574  0.41701032    -0.18000
H67         H  0.23354698  0.06311314  0.41701491     0.04500
H68         H  0.23383204  0.20140537  0.41447622     0.04500
O69         O  0.87942911  0.23917071  0.48096828    -0.80700
O70         O  0.00653894  0.28181043  0.08061201    -0.65400
O71         O  0.96200141  0.25981080  0.00699081    -1.12000
C72         C  0.97336944  0.13474725  0.03955265     1.06200
O73         O  0.06078085  0.23889986  0.07636668    -0.78600
O74         O  0.06519870  0.19011990  0.03402147    -0.66100
Ni75       Ni  0.91061973  0.28479909  0.49118607     1.34900
C76         C  0.05865893  0.19548891  0.50775070     0.85000
O77         O  0.98583451  0.32442861  0.03653734    -0.79100
O78         O  0.93769791  0.33269430  0.99965936    -0.89400
C79         C  0.04674728  0.27021587  0.08566604     0.84500
O80         O  0.87376046  0.28719218  0.02464927    -0.67600
O81         O  0.99922207  0.14697951  0.05929759    -0.86900
C82         C  0.88219612  0.28469384  0.05097862     0.85400
C83         C  0.96595856  0.34483525  0.01823847     1.06900
H84         H  0.95159912  0.21533457  0.06274464     0.38700
O85         O  0.97754879  0.21989581  0.05042460    -1.09500
O86         O  0.01940865  0.20286412  0.49741603    -0.66200
Ni87       Ni  0.95854604  0.20746538  0.01307948     1.26300
O88         O  0.92227750  0.27865066  0.06062101    -0.66400
O89         O  0.95618873  0.15492110  0.02009508    -0.78700
C90         C  0.89504928  0.20863702  0.47092879     0.84700
O91         O  0.93560799  0.19791303  0.47614515    -0.65900
Ni92       Ni  0.02778306  0.19415143  0.06706071     1.27400
Ni93       Ni  0.98227794  0.27217039  0.04404210     1.26100
H94         H  0.98738509  0.26487988  0.49423830     0.39300
O95         O  0.07131823  0.48913941  0.99054571    -0.80700
O96         O  0.92423996  0.44881713  0.07925148    -0.65400
O97         O  0.98286468  0.46949481  0.00901211    -1.12000
C98         C  0.96318462  0.09500476  0.03913261     1.06200
O99         O  0.86998093  0.49023511  0.06956372    -0.78600
O100        O  0.87366579  0.03737087  0.02587456    -0.66100
Ni101      Ni  0.03630345  0.44405560  0.99628534     1.34900
C102        C  0.88737701  0.03381347  0.50040292     0.85000
O103        O  0.95583512  0.40487692  0.03733502    -0.79100
O104        O  0.00554925  0.39695114  0.00086790    -0.89400
C105        C  0.88295841  0.46012709  0.08121934     0.84500
O106        O  0.06569499  0.43892745  0.03208490    -0.67600
O107        O  0.93163454  0.08314685  0.05563835    -0.86900
C108        C  0.05421847  0.44444410  0.05777941     0.85400
C109        C  0.97621882  0.38469154  0.01874503     1.06900
H110        H  0.97994215  0.01577354  0.06501859     0.38700
O111        O  0.95753396  0.01026853  0.05049710    -1.09500
O112        O  0.92913194  0.02720414  0.49390259    -0.66200
Ni113      Ni  0.98534450  0.02188326  0.01517419     1.26300
O114        O  0.01340223  0.45334893  0.06518174    -0.66400
O115        O  0.98657245  0.07437438  0.02237403    -0.78700
C116        C  0.05904470  0.02002703  0.47977314     0.84700
O117        O  0.01755483  0.03063919  0.48083048    -0.65900
Ni118      Ni  0.90305721  0.03552374  0.06193357     1.27400
Ni119      Ni  0.95604848  0.45765206  0.04455746     1.26100
H120        H  0.95978145  0.46436703  0.49481968     0.39300
C121        C  0.24351814  0.35851186  0.17708604     0.02500
C122        C  0.24392129  0.39780125  0.17825612     0.02500
C123        C  0.21361220  0.41822761  0.16105351    -0.18000
C124        C  0.18189502  0.39953701  0.14357270     0.02500
C125        C  0.17939489  0.36025386  0.14447731     0.02500
C126        C  0.21041643  0.34026973  0.16096826    -0.18000
H127        H  0.20937544  0.31007529  0.16081633     0.04500
H128        H  0.21510153  0.44836690  0.16101891     0.04500
C129        C  0.67819426  0.32705631  0.16345235     0.02500
C130        C  0.67587831  0.36631670  0.16289194     0.02500
C131        C  0.70820026  0.38653784  0.14747129    -0.18000
C132        C  0.74266917  0.36849544  0.13210821     0.02500
C133        C  0.74349253  0.32919085  0.13093998     0.02500
C134        C  0.71179879  0.30860922  0.14709852    -0.18000
H135        H  0.71328300  0.27846312  0.14693909     0.04500
H136        H  0.70729787  0.41673240  0.14815794     0.04500
C137        C  0.80125918  0.44147679  0.08733271    -0.21100
C138        C  0.84766871  0.43676760  0.09493783    -0.09100
C139        C  0.85922402  0.40943271  0.11491766     0.29700
C140        C  0.82485683  0.38724452  0.12683147    -0.21100
C141        C  0.77875749  0.39148788  0.11867960    -0.09100
C142        C  0.76709769  0.41905985  0.09902091     0.29700
F143        F  0.72274734  0.42408124  0.09094775    -0.19700
H144        H  0.79134518  0.46222375  0.07191589     0.18100
H145        H  0.83412877  0.36704161  0.14278055     0.18100
F146        F  0.90336760  0.40474739  0.12346150    -0.19600
C147        C  0.16460961  0.41350613  0.09348516    -0.21100
C148        C  0.15456836  0.41984475  0.12217985    -0.09100
C149        C  0.11391533  0.43868725  0.12960334     0.29700
C150        C  0.08184832  0.44800294  0.10855131    -0.21100
C151        C  0.09028363  0.43904023  0.07981765    -0.09100
C152        C  0.13313331  0.42294778  0.07248612     0.29700
F153        F  0.14386475  0.41405018  0.04520180    -0.19700
H154        H  0.19576946  0.39882753  0.08747435     0.18100
H155        H  0.04970890  0.46090061  0.11487140     0.18100
F156        F  0.10365280  0.44531764  0.15729914    -0.19600
C157        C  0.76714493  0.31401522  0.08186606    -0.21100
C158        C  0.77510235  0.31032130  0.11099666    -0.09100
C159        C  0.81646229  0.29462070  0.12036298     0.29700
C160        C  0.85063879  0.28487506  0.10067322    -0.21100
C161        C  0.84380395  0.29043546  0.07138808    -0.09100
C162        C  0.80089196  0.30408965  0.06216001     0.29700
F163        F  0.79219415  0.30999030  0.03424780    -0.19700
H164        H  0.73548608  0.32652298  0.07445644     0.18100
H165        H  0.88309429  0.27430569  0.10846153     0.18100
F166        F  0.82512857  0.29149684  0.14854455    -0.19600
C167        C  0.09795646  0.34521911  0.13254287    -0.21100
C168        C  0.14508555  0.33897273  0.12810905    -0.09100
C169        C  0.15941740  0.31080128  0.10933438     0.29700
C170        C  0.12701942  0.28856230  0.09582452    -0.21100
C171        C  0.07978087  0.29437688  0.10043001    -0.09100
C172        C  0.06535028  0.32342485  0.11850883     0.29700
F173        F  0.02000666  0.33000913  0.12331172    -0.19700
H174        H  0.08646707  0.36645137  0.14735831     0.18100
H175        H  0.13902086  0.26689219  0.08151246     0.18100
F176        F  0.20479006  0.30476505  0.10413509    -0.19600
C177        C  0.14028507  0.17761056  0.49925184    -0.21100
C178        C  0.09874317  0.19171365  0.48848304    -0.09100
C179        C  0.09583084  0.19986358  0.45926163     0.29700
C180        C  0.13227389  0.19070864  0.44104825    -0.21100
C181        C  0.17151384  0.17313323  0.45173465    -0.09100
C182        C  0.17630745  0.16833924  0.48106031     0.29700
F183        F  0.21442338  0.15175811  0.49178082    -0.19700
H184        H  0.14414818  0.17167848  0.02163191     0.18100
H185        H  0.12833627  0.19447826  0.41838514     0.18100
F186        F  0.05714154  0.21483272  0.44801497    -0.19600
C187        C  0.11794369  0.09729378  0.43891938    -0.21100
C188        C  0.16410176  0.09157777  0.44640598    -0.09100
C189        C  0.17521171  0.06288550  0.46526372     0.29700
C190        C  0.14084032  0.03968567  0.47579717    -0.21100
C191        C  0.09463069  0.04498852  0.46808503    -0.09100
C192        C  0.08330079  0.07459872  0.44995715     0.29700
F193        F  0.03909022  0.58092002  0.44215647    -0.19700
H194        H  0.10885707  0.11866227  0.42383363     0.18100
H195        H  0.15047178  0.01761272  0.99017638     0.18100
F196        F  0.21944983  0.05712616  0.97326736    -0.19600
C197        C  0.62575731  0.43235164  0.21687519    -0.21100
C198        C  0.57923838  0.43277442  0.20902262    -0.09100
C199        C  0.56422586  0.41035362  0.18636570     0.29700
C200        C  0.59573842  0.38821088  0.17155498    -0.21100
C201        C  0.64205957  0.38752539  0.17969707    -0.09100
C202        C  0.65696585  0.40976015  0.20241104     0.29700
F203        F  0.70184864  0.40991628  0.21027678    -0.19700
H204        H  0.63789714  0.44934076  0.23439470     0.18100
H205        H  0.58426796  0.37233462  0.15332084     0.18100
F206        F  0.51968349  0.41109383  0.17783974    -0.19600
C207        C  0.30152030  0.42235779  0.24703539    -0.21100
C208        C  0.34380351  0.43683296  0.23757902    -0.09100
C209        C  0.35004494  0.44306957  0.20823449     0.29700
C210        C  0.31549396  0.43334643  0.18893263    -0.21100
C211        C  0.27477241  0.41676052  0.19849298    -0.09100
C212        C  0.26753778  0.41210583  0.22771297     0.29700
F213        F  0.22868962  0.39539136  0.23738082    -0.19700
H214        H  0.29547220  0.41713467  0.26935756     0.18100
H215        H  0.32173673  0.43645666  0.16638610     0.18100
F216        F  0.39010569  0.45703959  0.19798271    -0.19600
C217        C  0.28317698  0.06450093  0.36374430    -0.21100
C218        C  0.29985459  0.08895679  0.38449641    -0.09100
C219        C  0.34709999  0.08998163  0.39046076     0.29700
C220        C  0.37743595  0.06712151  0.37527411    -0.21100
C221        C  0.36069827  0.04232845  0.35459279    -0.09100
C222        C  0.31316171  0.04119772  0.34896662     0.29700
F223        F  0.29562839  0.01815171  0.32878042    -0.19700
H224        H  0.24672773  0.06343726  0.35908182     0.18100
H225        H  0.41381639  0.06818201  0.38008420     0.18100
F226        F  0.36355117  0.11209340  0.41155620    -0.19600
C227        C  0.57175359  0.28851791  0.19826373    -0.21100
C228        C  0.58620669  0.28660594  0.22672615    -0.09100
C229        C  0.63346054  0.29110948  0.23272366     0.29700
C230        C  0.66415228  0.30124575  0.21126471    -0.21100
C231        C  0.64874401  0.30623404  0.18343820    -0.09100
C232        C  0.60288306  0.29797173  0.17672500     0.29700
F233        F  0.58761694  0.30152633  0.14968547    -0.19700
H234        H  0.53595510  0.28442955  0.19280348     0.18100
H235        H  0.69956474  0.30732061  0.21667602     0.18100
F236        F  0.64992644  0.28730002  0.25948979    -0.19600
C237        C  0.29979298  0.28591916  0.22317093    -0.21100
C238        C  0.34633385  0.28983033  0.21553592    -0.09100
C239        C  0.35879947  0.31678755  0.19540279     0.29700
C240        C  0.32517098  0.33931955  0.18324327    -0.21100
C241        C  0.27887232  0.33567621  0.19120949    -0.09100
C242        C  0.26630271  0.30869111  0.21117954     0.29700
F243        F  0.22171870  0.30465531  0.21923925    -0.19700
H244        H  0.28934939  0.26558276  0.23880634     0.18100
H245        H  0.33513906  0.35930713  0.16724287     0.18100
F246        F  0.40319619  0.32075289  0.18695044    -0.19600
C247        C  0.36641351  0.19480301  0.36102619    -0.21100
C248        C  0.35462719  0.18747030  0.33255088    -0.09100
C249        C  0.31038261  0.17328241  0.32654288     0.29700
C250        C  0.28034727  0.16445137  0.34854700    -0.21100
C251        C  0.29341820  0.16954145  0.37684633    -0.09100
C252        C  0.33589684  0.18605463  0.38306748     0.31700
F253        F  0.34900117  0.19136462  0.41041249    -0.19700
H254        H  0.39984679  0.20609323  0.36632177     0.18100
H255        H  0.24770099  0.15145314  0.34355904     0.18100
F256        F  0.29678113  0.16575781  0.29956158    -0.19600
C257        C  0.78100493  0.06520331  0.46076725    -0.21100
C258        C  0.79376621  0.05832705  0.43253889    -0.09100
C259        C  0.83491160  0.03934521  0.42671621     0.29700
C260        C  0.86460290  0.02997788  0.44895849    -0.21100
C261        C  0.85330045  0.03905722  0.47729391    -0.09100
C262        C  0.81017913  0.05564482  0.48298582     0.29700
F263        F  0.79714943  0.06490152  0.50981879    -0.19700
H264        H  0.74939587  0.08003973  0.46548830     0.18100
H265        H  0.89715221  0.01680997  0.44390110     0.18100
F266        F  0.84770938  0.03216234  0.39949706    -0.19600
C267        C  0.78652742  0.16344458  0.44385985    -0.21100
C268        C  0.80390312  0.13840454  0.42364589    -0.09100
C269        C  0.85161007  0.13569968  0.41932761     0.29700
C270        C  0.88146015  0.15830453  0.43500707    -0.21100
C271        C  0.86391177  0.18415228  0.45478120    -0.09100
C272        C  0.81609825  0.18608474  0.45938064     0.29700
F273        F  0.79784222  0.20925576  0.47932059    -0.19700
H274        H  0.74981186  0.16536759  0.44762163     0.18100
H275        H  0.91815220  0.15619628  0.43127037     0.18100
F276        F  0.86912090  0.11210378  0.39944543    -0.19600
C277        C  0.63128771  0.04034686  0.36965550    -0.21100
C278        C  0.67112984  0.05642310  0.35823097    -0.09100
C279        C  0.67572076  0.05960589  0.32874156     0.29700
C280        C  0.63942296  0.04983862  0.31105631    -0.21100
C281        C  0.59752753  0.03696322  0.32240565    -0.09100
C282        C  0.59438884  0.03093884  0.35193571     0.29700
F283        F  0.55519514  0.01768640  0.36388153    -0.19700
H284        H  0.62744076  0.03774408  0.39243865     0.18100
H285        H  0.64357217  0.05419254  0.28846376     0.18100
F286        F  0.71430185  0.07461286  0.31720714    -0.19600
C287        C  0.58763862  0.15764385  0.36114411    -0.21100
C288        C  0.59806417  0.18355399  0.33993907    -0.09100
C289        C  0.64373468  0.18629930  0.32993942     0.29700
C290        C  0.67810554  0.16362734  0.34118618    -0.21100
C291        C  0.66767003  0.13807679  0.36260325    -0.09100
C292        C  0.62225672  0.13558452  0.37278149     0.29700
F293        F  0.61180322  0.11310333  0.39491256    -0.19700
H294        H  0.55292602  0.15531704  0.36935982     0.18100
H295        H  0.71301716  0.16612415  0.33331931     0.18100
F296        F  0.65513944  0.21047644  0.30901161    -0.19600
C297        C  0.70480011  0.11599911  0.87586007     0.02500
C298        C  0.70372166  0.07666811  0.87660749     0.02500
C299        C  0.73473711  0.05737379  0.89400219    -0.18000
C300        C  0.76765528  0.07706215  0.90987895     0.02500
C301        C  0.77122264  0.11606469  0.90682075     0.02500
C302        C  0.73973238  0.13507316  0.88993305    -0.18000
H303        H  0.74093695  0.16523223  0.88900709     0.04500
H304        H  0.73243604  0.02736567  0.89575899     0.04500
O305        O  0.57294603  0.23856059  0.81734307    -0.80700
O306        O  0.42211085  0.27830807  0.73166115    -0.65400
O307        O  0.48356258  0.25741752  0.80055872    -1.12000
C308        C  0.46426275  0.13188103  0.77011046     1.06200
O309        O  0.36878002  0.23594955  0.74063788    -0.78600
O310        O  0.37505669  0.18876298  0.78410395    -0.66100
Ni311      Ni  0.53754721  0.28336855  0.81177428     1.34900
C312        C  0.38888479  0.19247851  0.80946706     0.85000
O313        O  0.45284381  0.32177773  0.77356476    -0.79100
O314        O  0.50666375  0.33047938  0.80733203    -0.89400
C315        C  0.38125765  0.26649091  0.72942374     0.84500
O316        O  0.56560179  0.28744307  0.77533347    -0.67600
O317        O  0.43284531  0.14372853  0.75363133    -0.86900
C318        C  0.55201745  0.28236247  0.75004547     0.85400
C319        C  0.47501292  0.34229402  0.79097225     1.06900
H320        H  0.47967508  0.21199364  0.74431409     0.38700
O321        O  0.45743887  0.21685397  0.75912856    -1.09500
O322        O  0.43063319  0.19928110  0.81580556    -0.66200
Ni323      Ni  0.48649085  0.20504799  0.79399353     1.26300
O324        O  0.51043836  0.27482140  0.74394039    -0.66400
O325        O  0.48777929  0.15256324  0.78665244    -0.78700
C326        C  0.56159845  0.20757283  0.82828159     0.84700
O327        O  0.52029494  0.19622346  0.82776787    -0.65900
Ni328      Ni  0.40336773  0.19108307  0.74778926     1.27400
Ni329      Ni  0.45461822  0.26926425  0.76576271     1.26100
H330        H  0.46130478  0.26224028  0.81540363     0.39300
O331        O  0.37709170  0.48781068  0.82812400    -0.80700
O332        O  0.50663941  0.44540359  0.72952250    -0.65400
O333        O  0.46036424  0.46707840  0.80297314    -1.12000
C334        C  0.47399034  0.09203727  0.77000454     1.06200
O335        O  0.56199373  0.48691347  0.73541951    -0.78600
O336        O  0.56448866  0.03753146  0.77688653    -0.66100
Ni337      Ni  0.40834587  0.44210246  0.81822883     1.34900
C338        C  0.55763129  0.03210077  0.80314842     0.85000
O339        O  0.48469128  0.40255394  0.77340736    -0.79100
O340        O  0.43561753  0.39413411  0.80998392    -0.89400
C341        C  0.54716528  0.45659992  0.72483244     0.84500
O342        O  0.37232751  0.43959968  0.78451445    -0.67600
O343        O  0.49949625  0.07932111  0.75012963    -0.86900
C344        C  0.38162449  0.44251704  0.75826907     0.85400
C345        C  0.46445379  0.38209060  0.79157180     1.06900
H346        H  0.45210794  0.01188222  0.74734707     0.38700
O347        O  0.47769159  0.00704600  0.75983416    -1.09500
O348        O  0.51838996  0.02373468  0.81330181    -0.66200
Ni349      Ni  0.45781550  0.01957105  0.79699913     1.26300
O350        O  0.42198579  0.44880775  0.74905044    -0.66400
O351        O  0.45677505  0.07226998  0.78983976    -0.78700
C352        C  0.39245422  0.01815697  0.83854210     0.84700
O353        O  0.43318488  0.02906685  0.83369721    -0.65900
Ni354      Ni  0.52864841  0.03209191  0.74347282     1.27400
Ni355      Ni  0.48160061  0.45481746  0.76603498     1.26100
H356        H  0.48528924  0.46177831  0.81586325     0.39300
C357        C  0.26696486  0.11178804  0.90082532     0.02500
C358        C  0.26596226  0.15097997  0.89894957     0.02500
C359        C  0.23424883  0.17126535  0.91539859    -0.18000
C360        C  0.20235946  0.15243845  0.93255252     0.02500
C361        C  0.20101170  0.11308818  0.93228855     0.02500
C362        C  0.23411669  0.09331577  0.91701038    -0.18000
H363        H  0.23354694  0.06311317  0.91701495     0.04500
H364        H  0.23383214  0.20140541  0.91447632     0.04500
O365        O  0.87942906  0.23917055  0.98096837    -0.80700
O366        O  0.00653893  0.28181050  0.58061202    -0.65400
O367        O  0.96200141  0.25981091  0.50699081    -1.12000
C368        C  0.97336950  0.13474734  0.53955260     1.06200
O369        O  0.06078088  0.23889997  0.57636664    -0.78600
O370        O  0.06519875  0.19012006  0.53402140    -0.66100
Ni371      Ni  0.91061971  0.28479895  0.99118607     1.34900
C372        C  0.05865892  0.19548877  0.00775076     0.85000
O373        O  0.98583456  0.32442870  0.53653737    -0.79100
O374        O  0.93769786  0.33269443  0.49965945    -0.89400
C375        C  0.04674728  0.27021595  0.58566603     0.84500
O376        O  0.87376044  0.28719221  0.52464925    -0.67600
O377        O  0.99922218  0.14697958  0.55929752    -0.86900
C378        C  0.88219610  0.28469391  0.55097861     0.85400
C379        C  0.96595856  0.34483535  0.51823854     1.06900
H380        H  0.95159918  0.21533466  0.56274462     0.38700
O381        O  0.97754879  0.21989590  0.55042459    -1.09500
O382        O  0.01940865  0.20286400  0.99741607    -0.66200
Ni383      Ni  0.95854604  0.20746549  0.51307946     1.26300
O384        O  0.92227748  0.27865078  0.56062101    -0.66400
O385        O  0.95618874  0.15492120  0.52009506    -0.78700
C386        C  0.89504925  0.20863688  0.97092884     0.84700
O387        O  0.93560798  0.19791291  0.97614517    -0.65900
Ni388      Ni  0.02778313  0.19415153  0.56706066     1.27400
Ni389      Ni  0.98227794  0.27217048  0.54404210     1.26100
H390        H  0.98738505  0.26487975  0.99423831     0.39300
O391        O  0.07131823  0.48913947  0.49054575    -0.80700
O392        O  0.92423992  0.44881725  0.57925151    -0.65400
O393        O  0.98286468  0.46949487  0.50901213    -1.12000
C394        C  0.96318466  0.09500483  0.53913257     1.06200
O395        O  0.86998088  0.49023520  0.56956369    -0.78600
O396        O  0.87366579  0.03737090  0.52587455    -0.66100
Ni397      Ni  0.03630346  0.44405567  0.49628539     1.34900
C398        C  0.88737701  0.03381347  0.00040293     0.85000
O399        O  0.95583513  0.40487702  0.53733508    -0.79100
O400        O  0.00554926  0.39695122  0.50086796    -0.89400
C401        C  0.88295836  0.46012719  0.58121933     0.84500
O402        O  0.06569497  0.43892755  0.53208496    -0.67600
O403        O  0.93163456  0.08314694  0.55563831    -0.86900
C404        C  0.05421844  0.44444420  0.55777947     0.85400
C405        C  0.97621883  0.38469163  0.51874510     1.06900
H406        H  0.97994211  0.01577361  0.56501857     0.38700
O407        O  0.95753397  0.01026860  0.55049711    -1.09500
O408        O  0.92913193  0.02720411  0.99390259    -0.66200
Ni409      Ni  0.98534450  0.02188331  0.51517419     1.26300
O410        O  0.01340219  0.45334906  0.56518179    -0.66400
O411        O  0.98657248  0.07437444  0.52237400    -0.78700
C412        C  0.05904470  0.02002699  0.97977311     0.84700
O413        O  0.01755483  0.03063917  0.98083048    -0.65900
Ni414      Ni  0.90305723  0.03552384  0.56193356     1.27400
Ni415      Ni  0.95604846  0.45765216  0.54455749     1.26100
H416        H  0.95978146  0.46436699  0.99481966     0.39300
C417        C  0.24351807  0.35851189  0.67708612     0.02500
C418        C  0.24392132  0.39780129  0.67825616     0.02500
C419        C  0.21361226  0.41822765  0.66105351    -0.18000
C420        C  0.18189503  0.39953704  0.64357273     0.02500
C421        C  0.17939481  0.36025390  0.64447740     0.02500
C422        C  0.21041629  0.34026977  0.66096839    -0.18000
H423        H  0.20937524  0.31007533  0.66081650     0.04500
H424        H  0.21510165  0.44836694  0.66101888     0.04500
C425        C  0.67819409  0.32705641  0.66345225     0.02500
C426        C  0.67587817  0.36631680  0.66289183     0.02500
C427        C  0.70820012  0.38653791  0.64747117    -0.18000
C428        C  0.74266903  0.36849550  0.63210810     0.02500
C429        C  0.74349235  0.32919091  0.63093987     0.02500
C430        C  0.71179860  0.30860930  0.64709841    -0.18000
H431        H  0.71328279  0.27846320  0.64693899     0.04500
H432        H  0.70729776  0.41673248  0.64815781     0.04500
C433        C  0.80125914  0.44147683  0.58733262    -0.21100
C434        C  0.84766865  0.43676769  0.59493781    -0.09100
C435        C  0.85922391  0.40943283  0.61491766     0.29700
C436        C  0.82485670  0.38724461  0.62683143    -0.21100
C437        C  0.77875739  0.39148793  0.61867951    -0.09100
C438        C  0.76709763  0.41905987  0.59902078     0.29700
F439        F  0.72274730  0.42408119  0.59094755    -0.19700
H440        H  0.79134516  0.46222376  0.57191577     0.18100
H441        H  0.83412860  0.36704172  0.64278054     0.18100
F442        F  0.90336746  0.40474757  0.62346159    -0.19600
C443        C  0.16460959  0.41350621  0.59348520    -0.21100
C444        C  0.15456835  0.41984479  0.62217990    -0.09100
C445        C  0.11391528  0.43868722  0.62960341     0.29700
C446        C  0.08184825  0.44800292  0.60855139    -0.21100
C447        C  0.09028358  0.43904030  0.57981771    -0.09100
C448        C  0.13313328  0.42294789  0.57248617     0.29700
F449        F  0.14386473  0.41405035  0.54520184    -0.19700
H450        H  0.19576945  0.39882765  0.58747437     0.18100
H451        H  0.04970880  0.46090053  0.61487150     0.18100
F452        F  0.10365274  0.44531753  0.65729922    -0.19600
C453        C  0.76714483  0.31401529  0.58186596    -0.21100
C454        C  0.77510219  0.31032135  0.61099657    -0.09100
C455        C  0.81646212  0.29462077  0.62036291     0.29700
C456        C  0.85063867  0.28487513  0.60067318    -0.21100
C457        C  0.84380389  0.29043554  0.57138803    -0.09100
C458        C  0.80089192  0.30408974  0.56215994     0.29700
F459        F  0.79219419  0.30999045  0.53424772    -0.19700
H460        H  0.73548600  0.32652305  0.57445632     0.18100
H461        H  0.88309415  0.27430576  0.60846152     0.18100
F462        F  0.82512835  0.29149692  0.64854449    -0.19600
C463        C  0.09795639  0.34521919  0.63254289    -0.21100
C464        C  0.14508549  0.33897277  0.62810913    -0.09100
C465        C  0.15941737  0.31080129  0.60933450     0.29700
C466        C  0.12701941  0.28856234  0.59582459    -0.21100
C467        C  0.07978085  0.29437696  0.60043002    -0.09100
C468        C  0.06535024  0.32342495  0.61850881     0.29700
F469        F  0.02000660  0.33000927  0.62331164    -0.19700
H470        H  0.08646697  0.36645145  0.64735832     0.18100
H471        H  0.13902088  0.26689222  0.58151256     0.18100
F472        F  0.20479004  0.30476501  0.60413528    -0.19600
C473        C  0.14028507  0.17761042  0.99925194    -0.21100
C474        C  0.09874319  0.19171354  0.98848312    -0.09100
C475        C  0.09583092  0.19986356  0.95926173     0.29700
C476        C  0.13227402  0.19070872  0.94104838    -0.21100
C477        C  0.17151395  0.17313328  0.95173477    -0.09100
C478        C  0.17630750  0.16833919  0.98106042     0.29700
F479        F  0.21442340  0.15175801  0.99178093    -0.19700
H480        H  0.14414823  0.17167869  0.52163182     0.18100
H481        H  0.12833645  0.19447841  0.91838526     0.18100
F482        F  0.05714161  0.21483268  0.94801506    -0.19600
C483        C  0.11794370  0.09729388  0.93891951    -0.21100
C484        C  0.16410178  0.09157781  0.94640605    -0.09100
C485        C  0.17521173  0.06288544  0.96526371     0.29700
C486        C  0.14084034  0.03968557  0.97579711    -0.21100
C487        C  0.09463070  0.04498849  0.96808503    -0.09100
C488        C  0.08330079  0.07459879  0.94995724     0.29700
F489        F  0.03909023  0.58092016  0.94215662    -0.19700
H490        H  0.10885706  0.11866244  0.92383382     0.18100
H491        H  0.15047175  0.01761290  0.49017651     0.18100
F492        F  0.21944980  0.05712628  0.47326742    -0.19600
C493        C  0.62575737  0.43235195  0.71687499    -0.21100
C494        C  0.57923836  0.43277453  0.70902260    -0.09100
C495        C  0.56422572  0.41035355  0.68636581     0.29700
C496        C  0.59573824  0.38821082  0.67155505    -0.21100
C497        C  0.64205948  0.38752551  0.67969698    -0.09100
C498        C  0.65696586  0.40976045  0.70241082     0.29700
F499        F  0.70184871  0.40991672  0.71027644    -0.19700
H500        H  0.63789729  0.44934121  0.73439440     0.18100
H501        H  0.58426768  0.37233441  0.65332102     0.18100
F502        F  0.51968327  0.41109356  0.67784002    -0.19600
C503        C  0.30152042  0.42235767  0.74703542    -0.21100
C504        C  0.34380359  0.43683292  0.73757906    -0.09100
C505        C  0.35004496  0.44306963  0.70823454     0.29700
C506        C  0.31549396  0.43334653  0.68893268    -0.21100
C507        C  0.27477245  0.41676054  0.69849302    -0.09100
C508        C  0.26753789  0.41210574  0.72771301     0.29700
F509        F  0.22868979  0.39539117  0.73738085    -0.19700
H510        H  0.29547237  0.41713446  0.76935760     0.18100
H511        H  0.32173669  0.43645684  0.66638615     0.18100
F512        F  0.39010569  0.45703971  0.69798276    -0.19600
C513        C  0.28317701  0.06450099  0.86374435    -0.21100
C514        C  0.29985460  0.08895680  0.88449649    -0.09100
C515        C  0.34709999  0.08998159  0.89046089     0.29700
C516        C  0.37743597  0.06712149  0.87527423    -0.21100
C517        C  0.36069831  0.04232849  0.85459287    -0.09100
C518        C  0.31316175  0.04119779  0.84896667     0.29700
F519        F  0.29562844  0.01815181  0.82878044    -0.19700
H520        H  0.24672777  0.06343735  0.85908185     0.18100
H521        H  0.41381640  0.06818196  0.88008434     0.18100
F522        F  0.36355114  0.11209330  0.91155637    -0.19600
C523        C  0.57175355  0.28851788  0.69826373    -0.21100
C524        C  0.58620665  0.28660608  0.72672615    -0.09100
C525        C  0.63346048  0.29110980  0.73272365     0.29700
C526        C  0.66415217  0.30124607  0.71126468    -0.21100
C527        C  0.64874389  0.30623417  0.68343815    -0.09100
C528        C  0.60288298  0.29797170  0.67672497     0.29700
F529        F  0.58761684  0.30152615  0.64968544    -0.19700
H530        H  0.53595507  0.28442939  0.69280348     0.18100
H531        H  0.69956461  0.30732106  0.71667598     0.18100
F532        F  0.64992640  0.28730052  0.75948979    -0.19600
C533        C  0.29979294  0.28591912  0.72317092    -0.21100
C534        C  0.34633383  0.28983037  0.71553596    -0.09100
C535        C  0.35879943  0.31678765  0.69540287     0.29700
C536        C  0.32517092  0.33931964  0.68324336    -0.21100
C537        C  0.27887226  0.33567623  0.69120956    -0.09100
C538        C  0.26630266  0.30869107  0.71117955     0.29700
F539        F  0.22171865  0.30465520  0.71923924    -0.19700
H540        H  0.28934936  0.26558267  0.73880631     0.18100
H541        H  0.33513900  0.35930726  0.66724299     0.18100
F542        F  0.40319617  0.32075307  0.68695057    -0.19600
C543        C  0.36641358  0.19480296  0.86102625    -0.21100
C544        C  0.35462721  0.18747031  0.83255093    -0.09100
C545        C  0.31038261  0.17328247  0.82654294     0.29700
C546        C  0.28034729  0.16445141  0.84854708    -0.21100
C547        C  0.29341826  0.16954146  0.87684641    -0.09100
C548        C  0.33589693  0.18605457  0.88306754     0.31700
F549        F  0.34900130  0.19136452  0.91041255    -0.19700
H550        H  0.39984688  0.20609314  0.86632182     0.18100
H551        H  0.24770099  0.15145322  0.84355912     0.18100
F552        F  0.29678106  0.16575795  0.79956165    -0.19600
C553        C  0.78100503  0.06520347  0.96076724    -0.21100
C554        C  0.79376621  0.05832699  0.93253889    -0.09100
C555        C  0.83491150  0.03934499  0.92671623     0.29700
C556        C  0.86460280  0.02997771  0.94895853    -0.21100
C557        C  0.85330046  0.03905724  0.97729392    -0.09100
C558        C  0.81017924  0.05564503  0.98298582     0.29700
F559        F  0.79714967  0.06490196  0.00981877    -0.19700
H560        H  0.74939605  0.08004002  0.96548826     0.18100
H561        H  0.89715204  0.01680966  0.94390115     0.18100
F562        F  0.84770919  0.03216193  0.89949710    -0.19600
C563        C  0.78652741  0.16344453  0.94385976    -0.21100
C564        C  0.80390314  0.13840445  0.92364585    -0.09100
C565        C  0.85161011  0.13569949  0.91932768     0.29700
C566        C  0.88146016  0.15830433  0.93500716    -0.21100
C567        C  0.86391175  0.18415215  0.95478124    -0.09100
C568        C  0.81609822  0.18608467  0.95938058     0.29700
F569        F  0.79784212  0.20925576  0.97932047    -0.19700
H570        H  0.74981184  0.16536760  0.94762148     0.18100
H571        H  0.91815223  0.15619601  0.93127053     0.18100
F572        F  0.86912098  0.11210350  0.89944557    -0.19600
C573        C  0.63128774  0.04034677  0.86965552    -0.21100
C574        C  0.67112988  0.05642298  0.85823098    -0.09100
C575        C  0.67572085  0.05960569  0.82874157     0.29700
C576        C  0.63942307  0.04983840  0.81105631    -0.21100
C577        C  0.59752761  0.03696308  0.82240567    -0.09100
C578        C  0.59438889  0.03093872  0.85193572     0.29700
F579        F  0.55519518  0.01768628  0.86388153    -0.19700
H580        H  0.62744077  0.03774403  0.89243867     0.18100
H581        H  0.64357232  0.05419227  0.78846377     0.18100
F582        F  0.71430195  0.07461265  0.81720716    -0.19600
C583        C  0.58763869  0.15764388  0.86114415    -0.21100
C584        C  0.59806420  0.18355392  0.83993905    -0.09100
C585        C  0.64373467  0.18629909  0.82993929     0.29700
C586        C  0.67810553  0.16362713  0.84118605    -0.21100
C587        C  0.66767006  0.13807668  0.86260320    -0.09100
C588        C  0.62225679  0.13558451  0.87278151     0.29700
F589        F  0.61180333  0.11310340  0.89491263    -0.19700
H590        H  0.55292612  0.15531715  0.86935993     0.18100
H591        H  0.71301712  0.16612385  0.83331911     0.18100
F592        F  0.65513936  0.21047608  0.80901136    -0.19600
C593        C  0.70479990  0.61599904  0.37586026     0.02500
C594        C  0.70372154  0.57666804  0.37660758     0.02500
C595        C  0.73473715  0.55737367  0.39400212    -0.18000
C596        C  0.76765529  0.57706201  0.40987891     0.02500
C597        C  0.77122238  0.61606460  0.40682094     0.02500
C598        C  0.73973204  0.63507310  0.38993335    -0.18000
H599        H  0.74093647  0.66523218  0.38900751     0.04500
H600        H  0.73243620  0.52736554  0.39575880     0.04500
O601        O  0.57294599  0.73856078  0.31734363    -0.80700
O602        O  0.42211171  0.77830790  0.23166099    -0.65400
O603        O  0.48356270  0.75741748  0.30055884    -1.12000
C604        C  0.46426327  0.63188096  0.27011059     1.06200
O605        O  0.36878078  0.73594945  0.24063762    -0.78600
O606        O  0.37505708  0.68876304  0.28410375    -0.66100
Ni607      Ni  0.53754708  0.78336865  0.31177468     1.34900
C608        C  0.38888501  0.69247853  0.30946690     0.85000
O609        O  0.45284418  0.82177766  0.27356466    -0.79100
O610        O  0.50666354  0.83047941  0.30733226    -0.89400
C611        C  0.38125850  0.76649078  0.22942349     0.84500
O612        O  0.56560208  0.78744318  0.27533402    -0.67600
O613        O  0.43284588  0.64372845  0.25363142    -0.86900
C614        C  0.55201812  0.78236243  0.25004596     0.85400
C615        C  0.47501298  0.84229400  0.29097226     1.06900
H616        H  0.47967590  0.71199350  0.24431413     0.38700
O617        O  0.45743944  0.71685388  0.25912862    -1.09500
O618        O  0.43063338  0.69928100  0.31580553    -0.66200
Ni619      Ni  0.48649117  0.70504795  0.29399367     1.26300
O620        O  0.51043914  0.77482125  0.24394066    -0.66400
O621        O  0.48777979  0.65256319  0.28665258    -0.78700
C622        C  0.56159841  0.70757293  0.32828199     0.84700
O623        O  0.52029495  0.69622348  0.32776813    -0.65900
Ni624      Ni  0.40336841  0.69108298  0.24778917     1.27400
Ni625      Ni  0.45461871  0.76926415  0.26576270     1.26100
H626        H  0.46130460  0.76224023  0.31540371     0.39300
O627        O  0.37709164  0.98781072  0.32812394    -0.80700
O628        O  0.50663999  0.94540355  0.22952259    -0.65400
O629        O  0.46036418  0.96707839  0.30297309    -1.12000
C630        C  0.47399076  0.59203720  0.27000470     1.06200
O631        O  0.56199398  0.98691373  0.23541958    -0.78600
O632        O  0.56448894  0.53753067  0.27688659    -0.66100
Ni633      Ni  0.40834561  0.94210249  0.31822857     1.34900
C634        C  0.55763133  0.53210040  0.30314851     0.85000
O635        O  0.48469182  0.90255396  0.27340749    -0.79100
O636        O  0.43561701  0.89413407  0.30998349    -0.89400
C637        C  0.54716581  0.95660004  0.22483260     0.84500
O638        O  0.37232742  0.93960021  0.28451412    -0.67600
O639        O  0.49949702  0.57932104  0.25012995    -0.86900
C640        C  0.38162472  0.94251715  0.25826876     0.85400
C641        C  0.46445381  0.88209059  0.29157169     1.06900
H642        H  0.45210810  0.51188230  0.24734708     0.38700
O643        O  0.47769155  0.50704596  0.25983413    -1.09500
O644        O  0.51838984  0.52373474  0.31330186    -0.66200
Ni645      Ni  0.45781544  0.51957097  0.29699911     1.26300
O646        O  0.42198620  0.94880739  0.24905024    -0.66400
O647        O  0.45677493  0.57226988  0.28983973    -0.78700
C648        C  0.39245410  0.51815690  0.33854204     0.84700
O649        O  0.43318476  0.52906677  0.33369717    -0.65900
Ni650      Ni  0.52864861  0.53209166  0.24347289     1.27400
Ni651      Ni  0.48160086  0.95481743  0.26603498     1.26100
H652        H  0.48528891  0.96177833  0.31586322     0.39300
C653        C  0.26696437  0.61178829  0.40082475     0.02500
C654        C  0.26596179  0.65098022  0.39894900     0.02500
C655        C  0.23424833  0.67126563  0.41539797    -0.18000
C656        C  0.20235896  0.65243877  0.43255190     0.02500
C657        C  0.20101123  0.61308850  0.43228802     0.02500
C658        C  0.23411617  0.59331606  0.41700983    -0.18000
H659        H  0.23354645  0.56311346  0.41701445     0.04500
H660        H  0.23383167  0.70140569  0.41447567     0.04500
O661        O  0.87942858  0.73917068  0.48096851    -0.80700
O662        O  0.00653932  0.78181034  0.08061186    -0.65400
O663        O  0.96200117  0.75981085  0.00699077    -1.12000
C664        C  0.97336939  0.63474725  0.03955246     1.06200
O665        O  0.06078116  0.73889974  0.07636636    -0.78600
O666        O  0.06519867  0.69011995  0.03402104    -0.66100
Ni667      Ni  0.91061927  0.78479907  0.49118624     1.34900
C668        C  0.05865870  0.69548898  0.50775032     0.85000
O669        O  0.98583453  0.82442858  0.03653729    -0.79100
O670        O  0.93769737  0.83269432  0.99965959    -0.89400
C671        C  0.04674766  0.77021572  0.08566580     0.84500
O672        O  0.87376032  0.78719201  0.02464961    -0.67600
O673        O  0.99922223  0.64697946  0.05929731    -0.86900
C674        C  0.88219628  0.78469375  0.05097893     0.85400
C675        C  0.96595827  0.84483524  0.01823856     1.06900
H676        H  0.95159946  0.71533455  0.06274452     0.38700
O677        O  0.97754887  0.71989577  0.05042448    -1.09500
O678        O  0.01940835  0.70286417  0.49741575    -0.66200
Ni679      Ni  0.95854587  0.70746543  0.01307939     1.26300
O680        O  0.92227776  0.77865065  0.06062116    -0.66400
O681        O  0.95618858  0.65492113  0.02009494    -0.78700
C682        C  0.89504878  0.70863708  0.47092888     0.84700
O683        O  0.93560757  0.69791316  0.47614508    -0.65900
Ni684      Ni  0.02778329  0.69415135  0.06706040     1.27400
Ni685      Ni  0.98227802  0.77217036  0.04404201     1.26100
H686        H  0.98738472  0.76487993  0.49423815     0.39300
O687        O  0.07131799  0.98913913  0.99054555    -0.80700
O688        O  0.92424027  0.94881722  0.07925166    -0.65400
O689        O  0.98286452  0.96949479  0.00901213    -1.12000
C690        C  0.96318452  0.59500476  0.03913245     1.06200
O691        O  0.86998113  0.99023508  0.06956385    -0.78600
O692        O  0.87366580  0.53737072  0.02587436    -0.66100
Ni693      Ni  0.03630310  0.94405544  0.99628522     1.34900
C694        C  0.88737708  0.53381332  0.50040272     0.85000
O695        O  0.95583511  0.90487692  0.03733516    -0.79100
O696        O  0.00554878  0.89695107  0.00086782    -0.89400
C697        C  0.88295871  0.96012714  0.08121955     0.84500
O698        O  0.06569488  0.93892717  0.03208470    -0.67600
O699        O  0.93163437  0.58314688  0.05563816    -0.86900
C700        C  0.05421860  0.94444395  0.05777925     0.85400
C701        C  0.97621855  0.88469151  0.01874508     1.06900
H702        H  0.97994195  0.51577352  0.06501854     0.38700
O703        O  0.95753386  0.51026851  0.05049704    -1.09500
O704        O  0.92913204  0.52720404  0.49390244    -0.66200
Ni705      Ni  0.98534453  0.52188325  0.01517416     1.26300
O706        O  0.01340245  0.95334896  0.06518168    -0.66400
O707        O  0.98657242  0.57437435  0.02237395    -0.78700
C708        C  0.05904483  0.52002725  0.47977323     0.84700
O709        O  0.01755489  0.53063922  0.48083047    -0.65900
Ni710      Ni  0.90305706  0.53552375  0.06193341     1.27400
Ni711      Ni  0.95604855  0.95765208  0.04455755     1.26100
H712        H  0.95978118  0.96436706  0.49481976     0.39300
C713        C  0.24351907  0.85851166  0.17708549     0.02500
C714        C  0.24392216  0.89780107  0.17825556     0.02500
C715        C  0.21361296  0.91822738  0.16105298    -0.18000
C716        C  0.18189571  0.89953675  0.14357224     0.02500
C717        C  0.17939562  0.86025360  0.14447689     0.02500
C718        C  0.21041729  0.84026950  0.16096778    -0.18000
H719        H  0.20937631  0.81007507  0.16081587     0.04500
H720        H  0.21510222  0.94836668  0.16101839     0.04500
C721        C  0.67819528  0.82705636  0.16345311     0.02500
C722        C  0.67587932  0.86631674  0.16289267     0.02500
C723        C  0.70820114  0.88653785  0.14747193    -0.18000
C724        C  0.74266995  0.86849544  0.13210878     0.02500
C725        C  0.74349333  0.82919084  0.13094062     0.02500
C726        C  0.71179969  0.80860924  0.14709923    -0.18000
H727        H  0.71328390  0.77846314  0.14693983     0.04500
H728        H  0.70729872  0.91673242  0.14815852     0.04500
C729        C  0.80125953  0.94147690  0.08733320    -0.21100
C730        C  0.84766913  0.93676768  0.09493817    -0.09100
C731        C  0.85922461  0.90943274  0.11491791     0.29700
C732        C  0.82485753  0.88724452  0.12683178    -0.21100
C733        C  0.77875814  0.89148787  0.11868005    -0.09100
C734        C  0.76709815  0.91905990  0.09902145     0.29700
F735        F  0.72274774  0.92408129  0.09094843    -0.19700
H736        H  0.79134539  0.96222391  0.07191646     0.18100
H737        H  0.83412960  0.86704160  0.14278083     0.18100
F738        F  0.90336826  0.90474739  0.12346161    -0.19600
C739        C  0.16460993  0.91350584  0.09348473    -0.21100
C740        C  0.15456889  0.91984446  0.12217945    -0.09100
C741        C  0.11391592  0.93868701  0.12960303     0.29700
C742        C  0.08184879  0.94800274  0.10855108    -0.21100
C743        C  0.09028390  0.93904003  0.07981739    -0.09100
C744        C  0.13313352  0.92294755  0.07248576     0.29700
F745        F  0.14386480  0.91404999  0.04520141    -0.19700
H746        H  0.19576973  0.89882722  0.08747383     0.18100
H747        H  0.04970943  0.96090043  0.11487125     0.18100
F748        F  0.10365357  0.94531740  0.15729886    -0.19600
C749        C  0.76714529  0.81401496  0.08186669    -0.21100
C750        C  0.77510302  0.81032124  0.11099727    -0.09100
C751        C  0.81646314  0.79462085  0.12036350     0.29700
C752        C  0.85063951  0.78487523  0.10067365    -0.21100
C753        C  0.84380432  0.79043539  0.07138851    -0.09100
C754        C  0.80089217  0.80408937  0.06216056     0.29700
F755        F  0.79219405  0.80998984  0.03424836    -0.19700
H756        H  0.73548630  0.82652256  0.07445714     0.18100
H757        H  0.88309515  0.77430604  0.10846188     0.18100
F758        F  0.82512969  0.79149718  0.14854505    -0.19600
C759        C  0.09795710  0.84521886  0.13254262    -0.21100
C760        C  0.14508617  0.83897244  0.12810873    -0.09100
C761        C  0.15941792  0.81080095  0.10933407     0.29700
C762        C  0.12701986  0.78856201  0.09582424    -0.21100
C763        C  0.07978133  0.79437665  0.10042977    -0.09100
C764        C  0.06535084  0.82342463  0.11850862     0.29700
F765        F  0.02000724  0.83000897  0.12331155    -0.19700
H766        H  0.08646779  0.86645113  0.14735807     0.18100
H767        H  0.13902122  0.76689190  0.08151217     0.18100
F768        F  0.20479055  0.80476467  0.10413472    -0.19600
C769        C  0.14028493  0.67761103  0.49925136    -0.21100
C770        C  0.09874288  0.69171388  0.48848259    -0.09100
C771        C  0.09583036  0.69986372  0.45926118     0.29700
C772        C  0.13227341  0.69070892  0.44104777    -0.21100
C773        C  0.17151350  0.67313367  0.45173413    -0.09100
C774        C  0.17630729  0.66833980  0.48105978     0.29700
F775        F  0.21442334  0.65175881  0.49178026    -0.19700
H776        H  0.14414823  0.67167910  0.02163138     0.18100
H777        H  0.12833567  0.69447843  0.41838465     0.18100
F778        F  0.05714087  0.71483258  0.44801454    -0.19600
C779        C  0.11794330  0.59729427  0.43891947    -0.21100
C780        C  0.16410149  0.59157815  0.44640574    -0.09100
C781        C  0.17521167  0.56288585  0.46526340     0.29700
C782        C  0.14084042  0.53968599  0.47579699    -0.21100
C783        C  0.09463068  0.54498888  0.46808511    -0.09100
C784        C  0.08330053  0.57459925  0.44995744     0.29700
F785        F  0.03909061  0.08091925  0.44215578    -0.19700
H786        H  0.10885644  0.61866280  0.42383381     0.18100
H787        H  0.15047206  0.51761303  0.99017617     0.18100
F788        F  0.21944990  0.55712652  0.97326687    -0.19600
C789        C  0.62575803  0.93235210  0.21687551    -0.21100
C790        C  0.57923911  0.93277465  0.20902292    -0.09100
C791        C  0.56422670  0.91035352  0.18636616     0.29700
C792        C  0.59573933  0.88821063  0.17155564    -0.21100
C793        C  0.64206049  0.88752543  0.17969772    -0.09100
C794        C  0.65696667  0.90976050  0.20241154     0.29700
F795        F  0.70184943  0.90991677  0.21027734    -0.19700
H796        H  0.63789776  0.94934144  0.23439493     0.18100
H797        H  0.58426894  0.87233399  0.15332167     0.18100
F798        F  0.51968435  0.91109352  0.17784016    -0.19600
C799        C  0.30152075  0.92235777  0.24703493    -0.21100
C800        C  0.34380395  0.93683304  0.23757865    -0.09100
C801        C  0.35004550  0.94306971  0.20823414     0.29700
C802        C  0.31549467  0.93334647  0.18893221    -0.21100
C803        C  0.27477315  0.91676039  0.19849246    -0.09100
C804        C  0.26753839  0.91210570  0.22771245     0.29700
F805        F  0.22869026  0.89539110  0.23738022    -0.19700
H806        H  0.29547255  0.91713461  0.26935709     0.18100
H807        H  0.32173752  0.93645676  0.16638569     0.18100
F808        F  0.39010623  0.95703992  0.19798246    -0.19600
C809        C  0.28317673  0.56450102  0.36374395    -0.21100
C810        C  0.29985421  0.58895702  0.38449600    -0.09100
C811        C  0.34709960  0.58998193  0.39046042     0.29700
C812        C  0.37743566  0.56712174  0.37527389    -0.21100
C813        C  0.36069809  0.54232852  0.35459265    -0.09100
C814        C  0.31316155  0.54119773  0.34896641     0.29700
F815        F  0.29562834  0.51815157  0.32878027    -0.19700
H816        H  0.24672750  0.56343727  0.35908143     0.18100
H817        H  0.41381608  0.56818231  0.38008403     0.18100
F818        F  0.36355067  0.61209381  0.41155582    -0.19600
C819        C  0.57175499  0.78851705  0.19826429    -0.21100
C820        C  0.58620763  0.78660604  0.22672684    -0.09100
C821        C  0.63346125  0.79111062  0.23272462     0.29700
C822        C  0.66415308  0.80124688  0.21126574    -0.21100
C823        C  0.64874518  0.80623416  0.18343905    -0.09100
C824        C  0.60288456  0.79797094  0.17672564     0.29700
F825        F  0.58761880  0.80152480  0.14968598    -0.19700
H826        H  0.53595671  0.78442790  0.19280384     0.18100
H827        H  0.69956528  0.80732253  0.21667721     0.18100
F828        F  0.64992679  0.78730228  0.25949093    -0.19600
C829        C  0.29979378  0.78591878  0.22317031    -0.21100
C830        C  0.34633475  0.78983023  0.21553560    -0.09100
C831        C  0.35880047  0.81678767  0.19540267     0.29700
C832        C  0.32517200  0.83931962  0.18324306    -0.21100
C833        C  0.27887324  0.83567602  0.19120901    -0.09100
C834        C  0.26630353  0.80869068  0.21117884     0.29700
F835        F  0.22171943  0.80465459  0.21923828    -0.19700
H836        H  0.28935007  0.76558220  0.23880556     0.18100
H837        H  0.33514019  0.85930736  0.16724281     0.18100
F838        F  0.40319729  0.82075329  0.18695061    -0.19600
C839        C  0.36641339  0.69480314  0.36102599    -0.21100
C840        C  0.35462724  0.68747044  0.33255065    -0.09100
C841        C  0.31038265  0.67328267  0.32654252     0.29700
C842        C  0.28034714  0.66445167  0.34854656    -0.21100
C843        C  0.29341792  0.66954171  0.37684593    -0.09100
C844        C  0.33589655  0.68605482  0.38306719     0.31700
F845        F  0.34900071  0.69136477  0.41041224    -0.19700
H846        H  0.39984667  0.70609329  0.36632166     0.18100
H847        H  0.24770086  0.65145351  0.34355852     0.18100
F848        F  0.29678132  0.66575813  0.29956119    -0.19600
C849        C  0.78100491  0.56520278  0.46076707    -0.21100
C850        C  0.79376632  0.55832675  0.43253871    -0.09100
C851        C  0.83491184  0.53934512  0.42671599     0.29700
C852        C  0.86460315  0.52997780  0.44895827    -0.21100
C853        C  0.85330058  0.53905698  0.47729369    -0.09100
C854        C  0.81017913  0.55564436  0.48298562     0.29700
F855        F  0.79714935  0.56490096  0.50981860    -0.19700
H856        H  0.74939573  0.58003903  0.46548814     0.18100
H857        H  0.89715257  0.51681006  0.44390086     0.18100
F858        F  0.84770972  0.53216246  0.39949683    -0.19600
C859        C  0.78652705  0.66344411  0.44386024    -0.21100
C860        C  0.80390281  0.63840434  0.42364610    -0.09100
C861        C  0.85160972  0.63569985  0.41932760     0.29700
C862        C  0.88145972  0.65830482  0.43500699    -0.21100
C863        C  0.86391129  0.68415232  0.45478131    -0.09100
C864        C  0.81609781  0.68608441  0.45938096     0.29700
F865        F  0.79784176  0.70925523  0.47932105    -0.19700
H866        H  0.74981151  0.66536685  0.44762216     0.18100
H867        H  0.91815175  0.65619686  0.43127012     0.18100
F868        F  0.86912057  0.61210422  0.39944524    -0.19600
C869        C  0.63128734  0.54034709  0.36965572    -0.21100
C870        C  0.67112967  0.55642293  0.35823114    -0.09100
C871        C  0.67572085  0.55960525  0.32874173     0.29700
C872        C  0.63942316  0.54983779  0.31105646    -0.21100
C873        C  0.59752753  0.53696280  0.32240581    -0.09100
C874        C  0.59438853  0.53093897  0.35193592     0.29700
F875        F  0.55519461  0.51768700  0.36388176    -0.19700
H876        H  0.62744021  0.53774470  0.39243889     0.18100
H877        H  0.64357259  0.55419131  0.28846388     0.18100
F878        F  0.71430210  0.57461195  0.31720729    -0.19600
C879        C  0.58763864  0.65764409  0.36114461    -0.21100
C880        C  0.59806413  0.68355399  0.33993940    -0.09100
C881        C  0.64373452  0.68629895  0.32993948     0.29700
C882        C  0.67810534  0.66362692  0.34118618    -0.21100
C883        C  0.66766988  0.63807661  0.36260343    -0.09100
C884        C  0.62225670  0.63558465  0.37278191     0.29700
F885        F  0.61180333  0.61310368  0.39491313    -0.19700
H886        H  0.55292612  0.65531755  0.36936051     0.18100
H887        H  0.71301688  0.66612348  0.33331913     0.18100
F888        F  0.65513914  0.71047580  0.30901144    -0.19600
C889        C  0.70479996  0.61599898  0.87586021     0.02500
C890        C  0.70372158  0.57666798  0.87660757     0.02500
C891        C  0.73473717  0.55737362  0.89400213    -0.18000
C892        C  0.76765534  0.57706197  0.90987889     0.02500
C893        C  0.77122247  0.61606455  0.90682088     0.02500
C894        C  0.73973214  0.63507304  0.88993326    -0.18000
H895        H  0.74093660  0.66523212  0.88900738     0.04500
H896        H  0.73243620  0.52736550  0.89575885     0.04500
O897        O  0.57294609  0.73856080  0.81734358    -0.80700
O898        O  0.42211170  0.77830799  0.73166101    -0.65400
O899        O  0.48356274  0.75741754  0.80055884    -1.12000
C900        C  0.46426329  0.63188101  0.77011063     1.06200
O901        O  0.36878083  0.73594946  0.74063757    -0.78600
O902        O  0.37505712  0.68876312  0.78410376    -0.66100
Ni903      Ni  0.53754715  0.78336869  0.81177467     1.34900
C904        C  0.38888507  0.69247858  0.80946691     0.85000
O905        O  0.45284421  0.82177772  0.77356469    -0.79100
O906        O  0.50666361  0.83047946  0.80733227    -0.89400
C907        C  0.38125852  0.76649082  0.72942348     0.84500
O908        O  0.56560208  0.78744327  0.77533400    -0.67600
O909        O  0.43284589  0.64372848  0.75363146    -0.86900
C910        C  0.55201812  0.78236255  0.75004594     0.85400
C911        C  0.47501304  0.84229406  0.79097228     1.06900
H912        H  0.47967581  0.71199361  0.74431419     0.38700
O913        O  0.45743950  0.71685394  0.75912859    -1.09500
O914        O  0.43063345  0.69928104  0.81580552    -0.66200
Ni915      Ni  0.48649123  0.70504801  0.79399365     1.26300
O916        O  0.51043914  0.77482135  0.74394064    -0.66400
O917        O  0.48777986  0.65256325  0.78665257    -0.78700
C918        C  0.56159850  0.70757295  0.82828194     0.84700
O919        O  0.52029502  0.69622353  0.82776810    -0.65900
Ni920      Ni  0.40336845  0.69108301  0.74778917     1.27400
Ni921      Ni  0.45461873  0.76926422  0.76576270     1.26100
H922        H  0.46130479  0.76224025  0.81540364     0.39300
O923        O  0.37709167  0.98781079  0.82812396    -0.80700
O924        O  0.50664006  0.94540364  0.72952265    -0.65400
O925        O  0.46036418  0.96707844  0.80297311    -1.12000
C926        C  0.47399078  0.59203724  0.77000476     1.06200
O927        O  0.56199404  0.98691381  0.73541966    -0.78600
O928        O  0.56448897  0.53753070  0.77688662    -0.66100
Ni929      Ni  0.40834563  0.94210254  0.81822860     1.34900
C930        C  0.55763137  0.53210041  0.80314854     0.85000
O931        O  0.48469189  0.90255403  0.77340753    -0.79100
O932        O  0.43561706  0.89413413  0.80998353    -0.89400
C933        C  0.54716588  0.95660012  0.72483266     0.84500
O934        O  0.37232746  0.93960023  0.78451414    -0.67600
O935        O  0.49949702  0.57932108  0.75013000    -0.86900
C936        C  0.38162477  0.94251717  0.75826878     0.85400
C937        C  0.46445387  0.88209065  0.79157172     1.06900
H938        H  0.45210813  0.51188233  0.74734715     0.38700
O939        O  0.47769158  0.50704600  0.75983419    -1.09500
O940        O  0.51838989  0.52373477  0.81330191    -0.66200
Ni941      Ni  0.45781549  0.51957101  0.79699918     1.26300
O942        O  0.42198626  0.94880743  0.74905027    -0.66400
O943        O  0.45677498  0.57226993  0.78983980    -0.78700
C944        C  0.39245416  0.51815692  0.83854209     0.84700
O945        O  0.43318484  0.52906679  0.83369725    -0.65900
Ni946      Ni  0.52864861  0.53209171  0.74347293     1.27400
Ni947      Ni  0.48160090  0.95481750  0.76603503     1.26100
H948        H  0.48528904  0.96177834  0.81586332     0.39300
C949        C  0.26696443  0.61178826  0.90082480     0.02500
C950        C  0.26596188  0.65098019  0.89894905     0.02500
C951        C  0.23424843  0.67126561  0.91539802    -0.18000
C952        C  0.20235904  0.65243876  0.93255195     0.02500
C953        C  0.20101129  0.61308849  0.93228808     0.02500
C954        C  0.23411622  0.59331604  0.91700987    -0.18000
H955        H  0.23354647  0.56311344  0.91701449     0.04500
H956        H  0.23383178  0.70140567  0.91447572     0.04500
O957        O  0.87942858  0.73917056  0.98096857    -0.80700
O958        O  0.00653929  0.78181038  0.58061185    -0.65400
O959        O  0.96200116  0.75981093  0.50699075    -1.12000
C960        C  0.97336935  0.63474733  0.53955239     1.06200
O961        O  0.06078114  0.73889979  0.57636636    -0.78600
O962        O  0.06519867  0.69012004  0.53402100    -0.66100
Ni963      Ni  0.91061923  0.78479896  0.99118627     1.34900
C964        C  0.05865872  0.69548891  0.00775036     0.85000
O965        O  0.98583451  0.82442865  0.53653730    -0.79100
O966        O  0.93769744  0.83269441  0.49965956    -0.89400
C967        C  0.04674763  0.77021576  0.58566580     0.84500
O968        O  0.87376034  0.78719212  0.52464957    -0.67600
O969        O  0.99922223  0.64697951  0.55929723    -0.86900
C970        C  0.88219628  0.78469380  0.55097889     0.85400
C971        C  0.96595829  0.84483532  0.51823857     1.06900
H972        H  0.95159946  0.71533459  0.56274448     0.38700
O973        O  0.97754886  0.71989583  0.55042445    -1.09500
O974        O  0.01940838  0.70286412  0.99741579    -0.66200
Ni975      Ni  0.95854585  0.70746551  0.51307935     1.26300
O976        O  0.92227775  0.77865068  0.56062113    -0.66400
O977        O  0.95618852  0.65492121  0.52009490    -0.78700
C978        C  0.89504880  0.70863697  0.97092890     0.84700
O979        O  0.93560759  0.69791305  0.97614512    -0.65900
Ni980      Ni  0.02778329  0.69415141  0.56706036     1.27400
Ni981      Ni  0.98227802  0.77217042  0.54404200     1.26100
H982        H  0.98738454  0.76487983  0.99423824     0.39300
O983        O  0.07131800  0.98913922  0.49054563    -0.80700
O984        O  0.92424024  0.94881730  0.57925167    -0.65400
O985        O  0.98286453  0.96949485  0.50901216    -1.12000
C986        C  0.96318447  0.59500484  0.53913238     1.06200
O987        O  0.86998113  0.99023520  0.56956388    -0.78600
O988        O  0.87366578  0.53737076  0.52587432    -0.66100
Ni989      Ni  0.03630313  0.94405551  0.49628528     1.34900
C990        C  0.88737710  0.53381329  0.00040276     0.85000
O991        O  0.95583510  0.90487699  0.53733518    -0.79100
O992        O  0.00554881  0.89695115  0.50086785    -0.89400
C993        C  0.88295869  0.96012724  0.58121956     0.84500
O994        O  0.06569485  0.93892723  0.53208477    -0.67600
O995        O  0.93163432  0.58314696  0.55563809    -0.86900
C996        C  0.05421854  0.94444399  0.55777931     0.85400
C997        C  0.97621857  0.88469159  0.51874511     1.06900
H998        H  0.97994192  0.51577365  0.56501853     0.38700
O999        O  0.95753383  0.51026862  0.55049702    -1.09500
O1000       O  0.92913206  0.52720401  0.99390247    -0.66200
Ni1001     Ni  0.98534451  0.52188332  0.51517414     1.26300
O1002       O  0.01340240  0.95334901  0.56518173    -0.66400
O1003       O  0.98657238  0.57437443  0.52237389    -0.78700
C1004       C  0.05904483  0.52002722  0.97977324     0.84700
O1005       O  0.01755489  0.53063920  0.98083050    -0.65900
Ni1006     Ni  0.90305702  0.53552384  0.56193337     1.27400
Ni1007     Ni  0.95604853  0.95765215  0.54455757     1.26100
H1008       H  0.95978118  0.96436702  0.99481975     0.39300
C1009       C  0.24351902  0.85851169  0.67708554     0.02500
C1010       C  0.24392217  0.89780109  0.67825559     0.02500
C1011       C  0.21361296  0.91822741  0.66105300    -0.18000
C1012       C  0.18189567  0.89953677  0.64357230     0.02500
C1013       C  0.17939553  0.86025363  0.64447697     0.02500
C1014       C  0.21041719  0.84026953  0.66096786    -0.18000
H1015       H  0.20937619  0.81007509  0.66081596     0.04500
H1016       H  0.21510225  0.94836670  0.66101840     0.04500
C1017       C  0.67819522  0.82705646  0.66345304     0.02500
C1018       C  0.67587926  0.86631684  0.66289260     0.02500
C1019       C  0.70820108  0.88653794  0.64747184    -0.18000
C1020       C  0.74266990  0.86849552  0.63210872     0.02500
C1021       C  0.74349330  0.82919093  0.63094057     0.02500
C1022       C  0.71179965  0.80860933  0.64709917    -0.18000
H1023       H  0.71328387  0.77846323  0.64693979     0.04500
H1024       H  0.70729866  0.91673251  0.64815842     0.04500
C1025       C  0.80125953  0.94147690  0.58733308    -0.21100
C1026       C  0.84766910  0.93676776  0.59493813    -0.09100
C1027       C  0.85922455  0.90943290  0.61491795     0.29700
C1028       C  0.82485746  0.88724467  0.62683180    -0.21100
C1029       C  0.77875810  0.89148795  0.61868000    -0.09100
C1030       C  0.76709814  0.91905992  0.59902134     0.29700
F1031       F  0.72274773  0.92408127  0.59094827    -0.19700
H1032       H  0.79134542  0.96222385  0.57191628     0.18100
H1033       H  0.83412951  0.86704180  0.64278089     0.18100
F1034       F  0.90336816  0.90474768  0.62346176    -0.19600
C1035       C  0.16460987  0.91350587  0.59348479    -0.21100
C1036       C  0.15456883  0.91984448  0.62217951    -0.09100
C1037       C  0.11391583  0.93868696  0.62960311     0.29700
C1038       C  0.08184868  0.94800268  0.60855117    -0.21100
C1039       C  0.09028381  0.93904003  0.57981747    -0.09100
C1040       C  0.13313344  0.92294757  0.57248583     0.29700
F1041       F  0.14386473  0.91405005  0.54520147    -0.19700
H1042       H  0.19576968  0.89882728  0.58747389     0.18100
H1043       H  0.04970930  0.96090033  0.61487135     0.18100
F1044       F  0.10365349  0.94531732  0.65729894    -0.19600
C1045       C  0.76714528  0.81401502  0.58186664    -0.21100
C1046       C  0.77510301  0.81032133  0.61099723    -0.09100
C1047       C  0.81646313  0.79462095  0.62036346     0.29700
C1048       C  0.85063948  0.78487527  0.60067362    -0.21100
C1049       C  0.84380431  0.79043543  0.57138847    -0.09100
C1050       C  0.80089217  0.80408943  0.56216052     0.29700
F1051       F  0.79219407  0.80998991  0.53424832    -0.19700
H1052       H  0.73548630  0.82652263  0.57445709     0.18100
H1053       H  0.88309512  0.77430607  0.60846185     0.18100
F1054       F  0.82512971  0.79149734  0.64854501    -0.19600
C1055       C  0.09795701  0.84521889  0.63254267    -0.21100
C1056       C  0.14508609  0.83897247  0.62810881    -0.09100
C1057       C  0.15941786  0.81080099  0.60933414     0.29700
C1058       C  0.12701982  0.78856205  0.59582429    -0.21100
C1059       C  0.07978128  0.79437669  0.60042980    -0.09100
C1060       C  0.06535077  0.82342467  0.61850864     0.29700
F1061       F  0.02000717  0.83000900  0.62331155    -0.19700
H1062       H  0.08646768  0.86645115  0.64735812     0.18100
H1063       H  0.13902121  0.76689194  0.58151222     0.18100
F1064       F  0.20479050  0.80476472  0.60413481    -0.19600
C1065       C  0.14028495  0.67761093  0.99925140    -0.21100
C1066       C  0.09874292  0.69171382  0.98848264    -0.09100
C1067       C  0.09583046  0.69986373  0.95926123     0.29700
C1068       C  0.13227353  0.69070895  0.94104783    -0.21100
C1069       C  0.17151360  0.67313367  0.95173419    -0.09100
C1070       C  0.17630733  0.66833974  0.98105984     0.29700
F1071       F  0.21442337  0.65175873  0.99178032    -0.19700
H1072       H  0.14414825  0.67167925  0.52163134     0.18100
H1073       H  0.12833582  0.69447852  0.91838471     0.18100
F1074       F  0.05714100  0.71483265  0.94801460    -0.19600
C1075       C  0.11794333  0.59729432  0.93891956    -0.21100
C1076       C  0.16410153  0.59157815  0.94640580    -0.09100
C1077       C  0.17521170  0.56288580  0.96526343     0.29700
C1078       C  0.14084043  0.53968593  0.97579699    -0.21100
C1079       C  0.09463069  0.54498887  0.96808515    -0.09100
C1080       C  0.08330055  0.57459931  0.94995754     0.29700
F1081       F  0.03909061  0.08091939  0.94215593    -0.19700
H1082       H  0.10885648  0.61866289  0.92383394     0.18100
H1083       H  0.15047205  0.51761313  0.49017620     0.18100
F1084       F  0.21944988  0.55712660  0.47326685    -0.19600
C1085       C  0.62575817  0.93235241  0.71687537    -0.21100
C1086       C  0.57923917  0.93277476  0.70902296    -0.09100
C1087       C  0.56422666  0.91035345  0.68636632     0.29700
C1088       C  0.59573924  0.88821053  0.67155579    -0.21100
C1089       C  0.64206049  0.88752556  0.67969768    -0.09100
C1090       C  0.65696678  0.90976084  0.70241135     0.29700
F1091       F  0.70184965  0.90991738  0.71027694    -0.19700
H1092       H  0.63789800  0.94934191  0.73439467     0.18100
H1093       H  0.58426874  0.87233373  0.65332193     0.18100
F1094       F  0.51968423  0.91109330  0.67784046    -0.19600
C1095       C  0.30152080  0.92235778  0.74703494    -0.21100
C1096       C  0.34380402  0.93683302  0.73757866    -0.09100
C1097       C  0.35004558  0.94306966  0.70823415     0.29700
C1098       C  0.31549473  0.93334644  0.68893222    -0.21100
C1099       C  0.27477319  0.91676042  0.69849248    -0.09100
C1100       C  0.26753842  0.91210574  0.72771246     0.29700
F1101       F  0.22869026  0.89539119  0.73738024    -0.19700
H1102       H  0.29547259  0.91713464  0.76935711     0.18100
H1103       H  0.32173760  0.93645671  0.66638570     0.18100
F1104       F  0.39010633  0.95703982  0.69798247    -0.19600
C1105       C  0.28317680  0.56450104  0.86374398    -0.21100
C1106       C  0.29985427  0.58895698  0.88449607    -0.09100
C1107       C  0.34709964  0.58998184  0.89046053     0.29700
C1108       C  0.37743571  0.56712166  0.87527401    -0.21100
C1109       C  0.36069815  0.54232851  0.85459271    -0.09100
C1110       C  0.31316162  0.54119775  0.84896643     0.29700
F1111       F  0.29562843  0.51815163  0.82878027    -0.19700
H1112       H  0.24672758  0.56343733  0.85908143     0.18100
H1113       H  0.41381612  0.56818219  0.88008417     0.18100
F1114       F  0.36355069  0.61209367  0.91155597    -0.19600
C1115       C  0.57175505  0.78851695  0.69826425    -0.21100
C1116       C  0.58620763  0.78660620  0.72672682    -0.09100
C1117       C  0.63346120  0.79111104  0.73272464     0.29700
C1118       C  0.66415302  0.80124727  0.71126575    -0.21100
C1119       C  0.64874517  0.80623427  0.68343902    -0.09100
C1120       C  0.60288463  0.79797083  0.67672559     0.29700
F1121       F  0.58761891  0.80152445  0.64968590    -0.19700
H1122       H  0.53595681  0.78442761  0.69280379     0.18100
H1123       H  0.69956516  0.80732312  0.71667723     0.18100
F1124       F  0.64992670  0.78730299  0.75949099    -0.19600
C1125       C  0.29979377  0.78591870  0.72317024    -0.21100
C1126       C  0.34633476  0.78983026  0.71553560    -0.09100
C1127       C  0.35880047  0.81678782  0.69540276     0.29700
C1128       C  0.32517197  0.83931975  0.68324315    -0.21100
C1129       C  0.27887321  0.83567604  0.69120904    -0.09100
C1130       C  0.26630351  0.80869060  0.71117880     0.29700
F1131       F  0.22171941  0.80465441  0.71923821    -0.19700
H1132       H  0.28935008  0.76558202  0.73880542     0.18100
H1133       H  0.33514016  0.85930756  0.66724295     0.18100
F1134       F  0.40319732  0.82075360  0.68695078    -0.19600
C1135       C  0.36641350  0.69480312  0.86102602    -0.21100
C1136       C  0.35462732  0.68747047  0.83255067    -0.09100
C1137       C  0.31038273  0.67328271  0.82654256     0.29700
C1138       C  0.28034725  0.66445166  0.84854661    -0.21100
C1139       C  0.29341804  0.66954167  0.87684597    -0.09100
C1140       C  0.33589667  0.68605479  0.88306723     0.31700
F1141       F  0.34900082  0.69136478  0.91041227    -0.19700
H1142       H  0.39984678  0.70609327  0.86632168     0.18100
H1143       H  0.24770096  0.65145351  0.84355856     0.18100
F1144       F  0.29678133  0.66575826  0.79956122    -0.19600
C1145       C  0.78100501  0.56520291  0.96076708    -0.21100
C1146       C  0.79376635  0.55832674  0.93253873    -0.09100
C1147       C  0.83491179  0.53934498  0.92671602     0.29700
C1148       C  0.86460311  0.52997768  0.94895831    -0.21100
C1149       C  0.85330060  0.53905698  0.97729373    -0.09100
C1150       C  0.81017923  0.55564448  0.98298564     0.29700
F1151       F  0.79714950  0.56490118  0.00981861    -0.19700
H1152       H  0.74939589  0.58003925  0.96548814     0.18100
H1153       H  0.89715247  0.51680984  0.94390092     0.18100
F1154       F  0.84770957  0.53216213  0.89949687    -0.19600
C1155       C  0.78652710  0.66344411  0.94386013    -0.21100
C1156       C  0.80390288  0.63840430  0.92364602    -0.09100
C1157       C  0.85160980  0.63569976  0.91932759     0.29700
C1158       C  0.88145979  0.65830472  0.93500701    -0.21100
C1159       C  0.86391133  0.68415224  0.95478129    -0.09100
C1160       C  0.81609784  0.68608439  0.95938088     0.29700
F1161       F  0.79784175  0.70925525  0.97932093    -0.19700
H1162       H  0.74981155  0.66536688  0.94762201     0.18100
H1163       H  0.91815183  0.65619672  0.93127019     0.18100
F1164       F  0.86912069  0.61210405  0.89944529    -0.19600
C1165       C  0.63128738  0.54034705  0.86965573    -0.21100
C1166       C  0.67112973  0.55642286  0.85823115    -0.09100
C1167       C  0.67572092  0.55960515  0.82874173     0.29700
C1168       C  0.63942322  0.54983772  0.81105646    -0.21100
C1169       C  0.59752759  0.53696276  0.82240583    -0.09100
C1170       C  0.59438858  0.53093893  0.85193593     0.29700
F1171       F  0.55519466  0.51768695  0.86388177    -0.19700
H1172       H  0.62744025  0.53774467  0.89243890     0.18100
H1173       H  0.64357265  0.55419124  0.78846388     0.18100
F1174       F  0.71430219  0.57461181  0.81720729    -0.19600
C1175       C  0.58763872  0.65764412  0.86114458    -0.21100
C1176       C  0.59806420  0.68355397  0.83993933    -0.09100
C1177       C  0.64373457  0.68629884  0.82993936     0.29700
C1178       C  0.67810538  0.66362679  0.84118607    -0.21100
C1179       C  0.66766993  0.63807654  0.86260336    -0.09100
C1180       C  0.62225676  0.63558465  0.87278187     0.29700
F1181       F  0.61180338  0.61310373  0.89491312    -0.19700
H1182       H  0.55292621  0.65531763  0.86936051     0.18100
H1183       H  0.71301691  0.66612328  0.83331898     0.18100
F1184       F  0.65513918  0.71047561  0.80901127    -0.19600
loop_ 
_geom_bond_atom_site_label_1 
_geom_bond_atom_site_label_2 
_geom_bond_distance 
_geom_bond_site_symmetry_2 
_ccdc_geom_bond_type 
C1            C2   1.414       .  A
C1            C6   1.393       .  A
C1          C291   1.481       .  S
C2            C3   1.406       .  A
C2          C278   1.475       .  S
C3            C4   1.405       .  A
C3            H8   1.084       .  S
C4            C5   1.413       .  A
C4          C258   1.477       .  S
C5            C6   1.396       .  A
C5          C268   1.474       .  S
C6            H7   1.085       .  S
O9          Ni15   1.930       .  S
O9           C30   1.273       .  A
O10         Ni33   1.896       .  S
O10          C19   1.266       .  A
O11         Ni15   1.901       .  S
O11         Ni33   1.895       .  S
O11         Ni27   1.906       .  S
O11          H34   0.966       .  S
C12          C38   1.459       .  S
C12          O29   1.274       .  A
C12          O21   1.275       .  A
O13         Ni32   1.931       .  S
O13          C19   1.273       .  A
O14         Ni32   1.898       .  S
O14          C16   1.268       .  A
Ni15         O18   1.928       .  S
Ni15         O20   1.904       .  S
C16         C248   1.484       .  S
C16          O26   1.274       .  A
O17         Ni33   1.920       .  S
O17          C23   1.276       .  A
O18          C23   1.276       .  A
C19         C238   1.474       .  S
O20          C22   1.268       .  A
O21         Ni32   1.926       .  S
C22         C228   1.488       .  S
C22          O28   1.273       .  A
C23          C49   1.462       .  S
H24          O25   0.965       .  S
O25         Ni33   1.908       .  S
O25         Ni27   1.899       .  S
O25         Ni32   1.901       .  S
O26         Ni27   1.931       .  S
Ni27         O31   1.901       .  S
Ni27         O29   1.915       .  S
O28         Ni33   1.929       .  S
C30         C288   1.476       .  S
C30          O31   1.269       .  A
O35         Ni41   1.930       .  S
O35         C648   1.274       .  A
O36         Ni59   1.894       .  S
O36          C45   1.265       .  A
O37         Ni41   1.900       .  S
O37         Ni59   1.894       .  S
O37        Ni645   1.909       .  S
O37          H60   0.967       .  S
C38          O55   1.278       .  A
C38          O47   1.275       .  A
O39        Ni650   1.925       .  S
O39          C45   1.271       .  A
O40         Ni58   1.900       .  S
O40          C42   1.269       .  A
Ni41         O44   1.933       .  S
Ni41         O46   1.907       .  S
C42         C281   1.485       .  S
C42          O52   1.273       .  A
O43         Ni59   1.913       .  S
O43          C49   1.274       .  A
O44          C49   1.278       .  A
C45         C198   1.464       .  S
O46          C48   1.269       .  A
O47         Ni58   1.920       .  S
C48         C208   1.485       .  S
C48          O54   1.271       .  A
H50          O51   0.966       .  S
O51         Ni53   1.893       .  S
O51         Ni58   1.898       .  S
O51        Ni651   1.904   1_545  S
O52         Ni53   1.929       .  S
Ni53         O57   1.898       .  S
Ni53         O55   1.925       .  S
Ni53        O629   1.909   1_545  S
O54         Ni59   1.923       .  S
C56         C221   1.471       .  S
C56          O57   1.268       .  A
C56         O627   1.274   1_545  A
Ni58        O631   1.925   1_545  S
Ni59        O643   1.904       .  S
C61          C62   1.411       .  A
C61          C66   1.391       .  A
C61         C218   1.471       .  S
C62          C63   1.403       .  A
C62         C251   1.473       .  S
C63          C64   1.404       .  A
C63          H68   1.084       .  S
C64          C65   1.414       .  A
C64         C181   1.469       .  S
C65          C66   1.392       .  A
C65         C188   1.481       .  S
C66          H67   1.085       .  S
O69         Ni75   1.933       .  S
O69          C90   1.275       .  A
O70         Ni93   1.894   1_455  S
O70          C79   1.265       .  A
O71         Ni93   1.894       .  S
O71         Ni87   1.906       .  S
O71        Ni371   1.899   1_554  S
O71         H390   0.968   1_554  S
C72          C98   1.458       .  S
C72          O89   1.275       .  A
C72          O81   1.274       .  A
O73         Ni92   1.922       .  S
O73          C79   1.271       .  A
O74         Ni92   1.901       .  S
O74         C372   1.268       .  A
Ni75        O374   1.932       .  S
Ni75        O376   1.905       .  S
Ni75        O367   1.899       .  S
C76         C178   1.480       .  S
C76          O86   1.271       .  A
C76         O370   1.268       .  A
O77         Ni93   1.915       .  S
O77          C83   1.275       .  A
O78        Ni371   1.932       .  S
O78          C83   1.277   1_556  A
C79         C171   1.469       .  S
O80        Ni371   1.905   1_554  S
O80          C82   1.269       .  A
O81         Ni92   1.921   1_655  S
C82         C161   1.484       .  S
C82          O88   1.271       .  A
C83         C109   1.463       .  S
H84          O85   0.965       .  S
O85         Ni93   1.908       .  S
O85         Ni87   1.896       .  S
O85         Ni92   1.902   1_655  S
O86        Ni383   1.922   1_455  S
Ni87         O89   1.919       .  S
Ni87        O382   1.922   1_654  S
Ni87        O387   1.895   1_554  S
O88         Ni93   1.922       .  S
C90         C271   1.473       .  S
C90          O91   1.266       .  A
O91        Ni383   1.895       .  S
H94         O367   0.968       .  S
O95        Ni101   1.933       .  S
O95        C1004   1.274       .  A
O96        Ni119   1.903       .  S
O96         C105   1.270       .  A
O97        Ni101   1.896   1_654  S
O97        Ni119   1.895       .  S
O97        Ni705   1.904       .  S
O97         H416   0.966   1_554  S
C98         O115   1.274       .  A
C98         O107   1.276       .  A
O99        Ni710   1.925       .  S
O99         C105   1.273       .  A
O100       Ni118   1.905       .  S
O100        C398   1.269       .  A
Ni101       O104   1.927   1_556  S
Ni101       O106   1.903   1_556  S
C102        C261   1.487       .  S
C102        O112   1.273       .  A
C102        O396   1.269       .  A
O103       Ni119   1.924       .  S
O103        C109   1.277       .  A
O104        C109   1.277   1_455  A
C105        C138   1.476       .  S
O106        C108   1.269       .  A
O107       Ni118   1.926       .  S
C108        C151   1.491       .  S
C108        O114   1.276       .  A
H110        O111   0.966       .  S
O111       Ni113   1.896       .  S
O111       Ni118   1.900       .  S
O111       Ni711   1.909   1_545  S
O112       Ni409   1.930       .  S
Ni113       O115   1.914       .  S
Ni113       O408   1.930   1_554  S
Ni113       O413   1.895   1_654  S
Ni113       O689   1.904   1_545  S
O114       Ni119   1.939   1_455  S
C116        C191   1.477       .  S
C116        O117   1.266       .  A
C116        O983   1.274   1_545  A
O117       Ni409   1.895   1_455  S
Ni118       O691   1.925   1_545  S
Ni119       O703   1.909       .  S
H120        O393   0.966       .  S
C121        C122   1.412       .  A
C121        C126   1.390       .  A
C121        C241   1.477       .  S
C122        C123   1.408       .  A
C122        C211   1.475       .  S
C123        C124   1.407       .  A
C123        H128   1.083       .  S
C124        C125   1.414       .  A
C124        C148   1.481       .  S
C125        C126   1.394       .  A
C125        C168   1.474       .  S
C126        H127   1.085       .  S
C129        C130   1.412       .  A
C129        C134   1.405       .  A
C129        C231   1.477       .  S
C130        C131   1.393       .  A
C130        C201   1.470       .  S
C131        C132   1.392       .  A
C131        H136   1.085       .  S
C132        C133   1.413       .  A
C132        C141   1.479       .  S
C133        C134   1.406       .  A
C133        C158   1.474       .  S
C134        H135   1.084       .  S
C137        C138   1.408       .  A
C137        C142   1.393       .  A
C137        H144   1.083       .  S
C138        C139   1.406       .  A
C139        C140   1.397       .  A
C139        F146   1.357       .  S
C140        C141   1.404       .  A
C140        H145   1.082       .  S
C141        C142   1.402       .  A
C142        F143   1.358       .  S
C147        C148   1.399       .  A
C147        C152   1.393       .  A
C147        H154   1.084       .  S
C148        C149   1.404       .  A
C149        C150   1.405       .  A
C149        F156   1.357       .  S
C150        C151   1.410       .  A
C150        H155   1.083       .  S
C151        C152   1.414       .  A
C152        F153   1.358       .  S
C157        C158   1.399       .  A
C157        C162   1.393       .  A
C157        H164   1.084       .  S
C158        C159   1.402       .  A
C159        C160   1.400       .  A
C159        F166   1.357       .  S
C160        C161   1.410       .  A
C160        H165   1.083       .  S
C161        C162   1.411       .  A
C162        F163   1.358       .  S
C167        C168   1.403       .  A
C167        C172   1.396       .  A
C167        H174   1.083       .  S
C168        C169   1.402       .  A
C169        C170   1.389       .  A
C169        F176   1.358       .  S
C170        C171   1.405       .  A
C170        H175   1.083       .  S
C171        C172   1.406       .  A
C172        F173   1.357       .  S
C177        C178   1.407       .  A
C177        C182   1.390       .  A
C177        H480   1.083       .  S
C178        C179   1.412       .  A
C179        C180   1.399       .  A
C179        F186   1.357       .  S
C180        C181   1.400       .  A
C180        H185   1.083       .  S
C181        C182   1.400       .  A
C182        F183   1.358       .  S
H184        C473   1.083   1_554  S
C187        C188   1.404       .  A
C187        C192   1.397       .  A
C187        H194   1.082       .  S
C188        C189   1.403       .  A
C189        C190   1.394       .  A
C189        F492   1.358       .  S
C190        C191   1.406       .  A
C190        H491   1.083       .  S
C191        C192   1.408       .  A
C192        F785   1.357       .  S
F193        C784   1.357       .  S
H195        C486   1.083       .  S
F196        C485   1.358       .  S
C197        C198   1.404       .  A
C197        C202   1.391       .  A
C197        H204   1.084       .  S
C198        C199   1.404       .  A
C199        C200   1.395       .  A
C199        F206   1.358       .  S
C200        C201   1.402       .  A
C200        H205   1.082       .  S
C201        C202   1.401       .  A
C202        F203   1.358       .  S
C207        C208   1.407       .  A
C207        C212   1.394       .  A
C207        H214   1.083       .  S
C208        C209   1.413       .  A
C209        C210   1.400       .  A
C209        F216   1.357       .  S
C210        C211   1.400       .  A
C210        H215   1.083       .  S
C211        C212   1.403       .  A
C212        F213   1.358       .  S
C217        C218   1.398       .  A
C217        C222   1.390       .  A
C217        H224   1.084       .  S
C218        C219   1.404       .  A
C219        C220   1.397       .  A
C219        F226   1.357       .  S
C220        C221   1.404       .  A
C220        H225   1.083       .  S
C221        C222   1.409       .  A
C222        F223   1.358       .  S
C227        C228   1.408       .  A
C227        C232   1.401       .  A
C227        H234   1.083       .  S
C228        C229   1.413       .  A
C229        C230   1.396       .  A
C229        F236   1.358       .  S
C230        C231   1.399       .  A
C230        H235   1.084       .  S
C231        C232   1.403       .  A
C232        F233   1.357       .  S
C237        C238   1.406       .  A
C237        C242   1.394       .  A
C237        H244   1.083       .  S
C238        C239   1.406       .  A
C239        C240   1.396       .  A
C239        F246   1.357       .  S
C240        C241   1.403       .  A
C240        H245   1.083       .  S
C241        C242   1.403       .  A
C242        F243   1.358       .  S
C247        C248   1.409       .  A
C247        C252   1.401       .  A
C247        H254   1.083       .  S
C248        C249   1.413       .  A
C249        C250   1.391       .  A
C249        F256   1.358       .  S
C250        C251   1.398       .  A
C250        H255   1.084       .  S
C251        C252   1.402       .  A
C252        F253   1.357       .  S
C257        C258   1.400       .  A
C257        C262   1.394       .  A
C257        H264   1.084       .  S
C258        C259   1.402       .  A
C259        C260   1.402       .  A
C259        F266   1.357       .  S
C260        C261   1.410       .  A
C260        H265   1.083       .  S
C261        C262   1.412       .  A
C262        F263   1.358       .  S
C267        C268   1.399       .  A
C267        C272   1.390       .  A
C267        H274   1.084       .  S
C268        C269   1.405       .  A
C269        C270   1.399       .  A
C269        F276   1.357       .  S
C270        C271   1.406       .  A
C270        H275   1.083       .  S
C271        C272   1.408       .  A
C272        F273   1.358       .  S
C277        C278   1.402       .  A
C277        C282   1.402       .  A
C277        H284   1.083       .  S
C278        C279   1.400       .  A
C279        C280   1.391       .  A
C279        F286   1.358       .  S
C280        C281   1.408       .  A
C280        H285   1.083       .  S
C281        C282   1.412       .  A
C282        F283   1.357       .  S
C287        C288   1.402       .  A
C287        C292   1.396       .  A
C287        H294   1.083       .  S
C288        C289   1.411       .  A
C289        C290   1.397       .  A
C289        F296   1.358       .  S
C290        C291   1.401       .  A
C290        H295   1.083       .  S
C291        C292   1.406       .  A
C292        F293   1.356       .  S
C297        C298   1.414       .  A
C297        C302   1.393       .  A
C297        C587   1.481       .  S
C298        C299   1.406       .  A
C298        C574   1.475       .  S
C299        C300   1.405       .  A
C299        H304   1.084       .  S
C300        C301   1.413       .  A
C300        C554   1.477       .  S
C301        C302   1.396       .  A
C301        C564   1.474       .  S
C302        H303   1.085       .  S
O305       Ni311   1.930       .  S
O305        C326   1.273       .  A
O306       Ni329   1.896       .  S
O306        C315   1.266       .  A
O307       Ni311   1.901       .  S
O307       Ni329   1.895       .  S
O307       Ni323   1.906       .  S
O307        H330   0.966       .  S
C308        C334   1.459       .  S
C308        O325   1.274       .  A
C308        O317   1.275       .  A
O309       Ni328   1.931       .  S
O309        C315   1.273       .  A
O310       Ni328   1.898       .  S
O310        C312   1.268       .  A
Ni311       O314   1.928       .  S
Ni311       O316   1.904       .  S
C312        C544   1.484       .  S
C312        O322   1.274       .  A
O313       Ni329   1.920       .  S
O313        C319   1.276       .  A
O314        C319   1.276       .  A
C315        C534   1.474       .  S
O316        C318   1.268       .  A
O317       Ni328   1.926       .  S
C318        C524   1.488       .  S
C318        O324   1.273       .  A
C319        C345   1.462       .  S
H320        O321   0.965       .  S
O321       Ni329   1.908       .  S
O321       Ni323   1.899       .  S
O321       Ni328   1.901       .  S
O322       Ni323   1.931       .  S
Ni323       O327   1.901       .  S
Ni323       O325   1.915       .  S
O324       Ni329   1.929       .  S
C326        C584   1.476       .  S
C326        O327   1.269       .  A
O331       Ni337   1.930       .  S
O331        C944   1.274       .  A
O332       Ni355   1.894       .  S
O332        C341   1.265       .  A
O333       Ni337   1.900       .  S
O333       Ni355   1.894       .  S
O333       Ni941   1.909       .  S
O333        H356   0.967       .  S
C334        O351   1.278       .  A
C334        O343   1.275       .  A
O335       Ni946   1.925       .  S
O335        C341   1.271       .  A
O336       Ni354   1.900       .  S
O336        C338   1.269       .  A
Ni337       O340   1.933       .  S
Ni337       O342   1.907       .  S
C338        C577   1.485       .  S
C338        O348   1.273       .  A
O339       Ni355   1.913       .  S
O339        C345   1.274       .  A
O340        C345   1.278       .  A
C341        C494   1.464       .  S
O342        C344   1.269       .  A
O343       Ni354   1.920       .  S
C344        C504   1.485       .  S
C344        O350   1.271       .  A
H346        O347   0.966       .  S
O347       Ni947   1.904   1_545  S
O347       Ni349   1.893       .  S
O347       Ni354   1.898       .  S
O348       Ni349   1.929       .  S
Ni349       O353   1.898       .  S
Ni349       O351   1.925       .  S
Ni349       O925   1.909   1_545  S
O350       Ni355   1.923       .  S
C352        C517   1.471       .  S
C352        O923   1.274   1_545  A
C352        O353   1.268       .  A
Ni354       O927   1.925   1_545  S
Ni355       O939   1.904       .  S
C357        C358   1.411       .  A
C357        C362   1.391       .  A
C357        C514   1.471       .  S
C358        C359   1.403       .  A
C358        C547   1.473       .  S
C359        C360   1.404       .  A
C359        H364   1.084       .  S
C360        C361   1.414       .  A
C360        C477   1.469       .  S
C361        C362   1.392       .  A
C361        C484   1.481       .  S
C362        H363   1.085       .  S
O365       Ni371   1.933       .  S
O365        C386   1.275       .  A
O366       Ni389   1.894   1_455  S
O366        C375   1.265       .  A
O367       Ni389   1.894       .  S
O367       Ni383   1.906       .  S
C368        C394   1.458       .  S
C368        O385   1.275       .  A
C368        O377   1.274       .  A
O369       Ni388   1.922       .  S
O369        C375   1.271       .  A
O370       Ni388   1.901       .  S
C372        C474   1.480   1_554  S
C372        O382   1.271   1_554  A
O373       Ni389   1.915       .  S
O373        C379   1.275       .  A
O374        C379   1.277       .  A
C375        C467   1.469       .  S
O376        C378   1.269       .  A
O377       Ni388   1.921   1_655  S
C378        C457   1.484       .  S
C378        O384   1.271       .  A
C379        C405   1.463       .  S
H380        O381   0.965       .  S
O381       Ni389   1.908       .  S
O381       Ni383   1.896       .  S
O381       Ni388   1.902   1_655  S
Ni383       O385   1.919       .  S
O384       Ni389   1.922       .  S
C386        C567   1.473       .  S
C386        O387   1.266       .  A
O391       Ni397   1.933       .  S
O391        C708   1.274       .  A
O392       Ni415   1.903       .  S
O392        C401   1.270       .  A
O393       Ni397   1.896   1_655  S
O393       Ni415   1.895       .  S
O393      Ni1001   1.904       .  S
C394        O411   1.274       .  A
C394        O403   1.276       .  A
O395      Ni1006   1.925       .  S
O395        C401   1.273       .  A
O396       Ni414   1.905       .  S
Ni397       O400   1.927       .  S
Ni397       O402   1.903       .  S
C398        C557   1.487   1_554  S
C398        O408   1.273   1_554  A
O399       Ni415   1.924       .  S
O399        C405   1.277       .  A
O400        C405   1.277   1_455  A
C401        C434   1.476       .  S
O402        C404   1.269       .  A
O403       Ni414   1.926       .  S
C404        C447   1.491       .  S
C404        O410   1.276       .  A
H406        O407   0.966       .  S
O407      Ni1007   1.909   1_545  S
O407       Ni409   1.896       .  S
O407       Ni414   1.900       .  S
Ni409       O411   1.914       .  S
Ni409       O985   1.904   1_545  S
O410       Ni415   1.939   1_455  S
C412        C487   1.477       .  S
C412        O687   1.274   1_545  A
C412        O413   1.266       .  A
Ni414       O987   1.925   1_545  S
Ni415       O999   1.909       .  S
C417        C418   1.412       .  A
C417        C422   1.390       .  A
C417        C537   1.477       .  S
C418        C419   1.408       .  A
C418        C507   1.475       .  S
C419        C420   1.407       .  A
C419        H424   1.083       .  S
C420        C421   1.414       .  A
C420        C444   1.481       .  S
C421        C422   1.394       .  A
C421        C464   1.474       .  S
C422        H423   1.085       .  S
C425        C426   1.412       .  A
C425        C430   1.405       .  A
C425        C527   1.477       .  S
C426        C427   1.393       .  A
C426        C497   1.470       .  S
C427        C428   1.392       .  A
C427        H432   1.085       .  S
C428        C429   1.413       .  A
C428        C437   1.479       .  S
C429        C430   1.406       .  A
C429        C454   1.474       .  S
C430        H431   1.084       .  S
C433        C434   1.408       .  A
C433        C438   1.393       .  A
C433        H440   1.083       .  S
C434        C435   1.406       .  A
C435        C436   1.397       .  A
C435        F442   1.357       .  S
C436        C437   1.404       .  A
C436        H441   1.082       .  S
C437        C438   1.402       .  A
C438        F439   1.358       .  S
C443        C444   1.399       .  A
C443        C448   1.393       .  A
C443        H450   1.084       .  S
C444        C445   1.404       .  A
C445        C446   1.405       .  A
C445        F452   1.357       .  S
C446        C447   1.410       .  A
C446        H451   1.083       .  S
C447        C448   1.414       .  A
C448        F449   1.358       .  S
C453        C454   1.399       .  A
C453        C458   1.393       .  A
C453        H460   1.084       .  S
C454        C455   1.402       .  A
C455        C456   1.400       .  A
C455        F462   1.357       .  S
C456        C457   1.410       .  A
C456        H461   1.083       .  S
C457        C458   1.411       .  A
C458        F459   1.358       .  S
C463        C464   1.403       .  A
C463        C468   1.396       .  A
C463        H470   1.083       .  S
C464        C465   1.402       .  A
C465        C466   1.389       .  A
C465        F472   1.358       .  S
C466        C467   1.405       .  A
C466        H471   1.083       .  S
C467        C468   1.406       .  A
C468        F469   1.357       .  S
C473        C474   1.407       .  A
C473        C478   1.390       .  A
C474        C475   1.412       .  A
C475        C476   1.399       .  A
C475        F482   1.357       .  S
C476        C477   1.400       .  A
C476        H481   1.083       .  S
C477        C478   1.400       .  A
C478        F479   1.358       .  S
C483        C484   1.404       .  A
C483        C488   1.397       .  A
C483        H490   1.082       .  S
C484        C485   1.403       .  A
C485        C486   1.394       .  A
C486        C487   1.406       .  A
C487        C488   1.408       .  A
C488       F1081   1.357       .  S
F489       C1080   1.357       .  S
C493        C494   1.404       .  A
C493        C498   1.391       .  A
C493        H500   1.084       .  S
C494        C495   1.404       .  A
C495        C496   1.395       .  A
C495        F502   1.358       .  S
C496        C497   1.402       .  A
C496        H501   1.082       .  S
C497        C498   1.401       .  A
C498        F499   1.358       .  S
C503        C504   1.407       .  A
C503        C508   1.394       .  A
C503        H510   1.083       .  S
C504        C505   1.413       .  A
C505        C506   1.400       .  A
C505        F512   1.357       .  S
C506        C507   1.400       .  A
C506        H511   1.083       .  S
C507        C508   1.403       .  A
C508        F509   1.358       .  S
C513        C514   1.398       .  A
C513        C518   1.390       .  A
C513        H520   1.084       .  S
C514        C515   1.404       .  A
C515        C516   1.397       .  A
C515        F522   1.357       .  S
C516        C517   1.404       .  A
C516        H521   1.083       .  S
C517        C518   1.409       .  A
C518        F519   1.358       .  S
C523        C524   1.408       .  A
C523        C528   1.401       .  A
C523        H530   1.083       .  S
C524        C525   1.413       .  A
C525        C526   1.396       .  A
C525        F532   1.358       .  S
C526        C527   1.399       .  A
C526        H531   1.084       .  S
C527        C528   1.403       .  A
C528        F529   1.357       .  S
C533        C534   1.406       .  A
C533        C538   1.394       .  A
C533        H540   1.083       .  S
C534        C535   1.406       .  A
C535        C536   1.396       .  A
C535        F542   1.357       .  S
C536        C537   1.403       .  A
C536        H541   1.083       .  S
C537        C538   1.403       .  A
C538        F539   1.358       .  S
C543        C544   1.409       .  A
C543        C548   1.401       .  A
C543        H550   1.083       .  S
C544        C545   1.413       .  A
C545        C546   1.391       .  A
C545        F552   1.358       .  S
C546        C547   1.398       .  A
C546        H551   1.084       .  S
C547        C548   1.402       .  A
C548        F549   1.357       .  S
C553        C554   1.400       .  A
C553        C558   1.394       .  A
C553        H560   1.084       .  S
C554        C555   1.402       .  A
C555        C556   1.402       .  A
C555        F562   1.357       .  S
C556        C557   1.410       .  A
C556        H561   1.083       .  S
C557        C558   1.412       .  A
C558        F559   1.358   1_556  S
C563        C564   1.399       .  A
C563        C568   1.390       .  A
C563        H570   1.084       .  S
C564        C565   1.405       .  A
C565        C566   1.399       .  A
C565        F572   1.357       .  S
C566        C567   1.406       .  A
C566        H571   1.083       .  S
C567        C568   1.408       .  A
C568        F569   1.358       .  S
C573        C574   1.402       .  A
C573        C578   1.402       .  A
C573        H580   1.083       .  S
C574        C575   1.400       .  A
C575        C576   1.391       .  A
C575        F582   1.358       .  S
C576        C577   1.408       .  A
C576        H581   1.083       .  S
C577        C578   1.412       .  A
C578        F579   1.357       .  S
C583        C584   1.402       .  A
C583        C588   1.396       .  A
C583        H590   1.083       .  S
C584        C585   1.411       .  A
C585        C586   1.397       .  A
C585        F592   1.358       .  S
C586        C587   1.401       .  A
C586        H591   1.083       .  S
C587        C588   1.406       .  A
C588        F589   1.356       .  S
C593        C594   1.414       .  A
C593        C598   1.393       .  A
C593        C883   1.481       .  S
C594        C595   1.406       .  A
C594        C870   1.475       .  S
C595        C596   1.405       .  A
C595        H600   1.084       .  S
C596        C597   1.413       .  A
C596        C850   1.477       .  S
C597        C598   1.396       .  A
C597        C860   1.474       .  S
C598        H599   1.085       .  S
O601       Ni607   1.930       .  S
O601        C622   1.273       .  A
O602       Ni625   1.896       .  S
O602        C611   1.266       .  A
O603       Ni607   1.901       .  S
O603       Ni625   1.895       .  S
O603       Ni619   1.906       .  S
O603        H626   0.966       .  S
C604        C630   1.459       .  S
C604        O621   1.274       .  A
C604        O613   1.275       .  A
O605       Ni624   1.931       .  S
O605        C611   1.273       .  A
O606       Ni624   1.898       .  S
O606        C608   1.268       .  A
Ni607       O610   1.928       .  S
Ni607       O612   1.904       .  S
C608        C840   1.484       .  S
C608        O618   1.274       .  A
O609       Ni625   1.920       .  S
O609        C615   1.276       .  A
O610        C615   1.276       .  A
C611        C830   1.474       .  S
O612        C614   1.268       .  A
O613       Ni624   1.926       .  S
C614        C820   1.488       .  S
C614        O620   1.273       .  A
C615        C641   1.462       .  S
H616        O617   0.965       .  S
O617       Ni625   1.908       .  S
O617       Ni619   1.899       .  S
O617       Ni624   1.901       .  S
O618       Ni619   1.931       .  S
Ni619       O623   1.901       .  S
Ni619       O621   1.915       .  S
O620       Ni625   1.929       .  S
C622        C880   1.476       .  S
C622        O623   1.269       .  A
O627       Ni633   1.930       .  S
O628       Ni651   1.894       .  S
O628        C637   1.265       .  A
O629       Ni633   1.900       .  S
O629       Ni651   1.894       .  S
O629        H652   0.967       .  S
C630        O647   1.278       .  A
C630        O639   1.275       .  A
O631        C637   1.271       .  A
O632       Ni650   1.900       .  S
O632        C634   1.269       .  A
Ni633       O636   1.933       .  S
Ni633       O638   1.907       .  S
C634        C873   1.485       .  S
C634        O644   1.273       .  A
O635       Ni651   1.913       .  S
O635        C641   1.274       .  A
O636        C641   1.278       .  A
C637        C790   1.464       .  S
O638        C640   1.269       .  A
O639       Ni650   1.920       .  S
C640        C800   1.485       .  S
C640        O646   1.271       .  A
H642        O643   0.966       .  S
O643       Ni645   1.893       .  S
O643       Ni650   1.898       .  S
O644       Ni645   1.929       .  S
Ni645       O649   1.898       .  S
Ni645       O647   1.925       .  S
O646       Ni651   1.923       .  S
C648        C813   1.471       .  S
C648        O649   1.268       .  A
C653        C654   1.411       .  A
C653        C658   1.391       .  A
C653        C810   1.471       .  S
C654        C655   1.403       .  A
C654        C843   1.473       .  S
C655        C656   1.404       .  A
C655        H660   1.084       .  S
C656        C657   1.414       .  A
C656        C773   1.469       .  S
C657        C658   1.392       .  A
C657        C780   1.481       .  S
C658        H659   1.085       .  S
O661       Ni667   1.933       .  S
O661        C682   1.275       .  A
O662       Ni685   1.894   1_455  S
O662        C671   1.265       .  A
O663       Ni963   1.899   1_554  S
O663       Ni685   1.894       .  S
O663       Ni679   1.906       .  S
O663        H982   0.968   1_554  S
C664        C690   1.458       .  S
C664        O681   1.275       .  A
C664        O673   1.274       .  A
O665       Ni684   1.922       .  S
O665        C671   1.271       .  A
O666       Ni684   1.901       .  S
O666        C964   1.268       .  A
Ni667       O966   1.932       .  S
Ni667       O968   1.905       .  S
Ni667       O959   1.899       .  S
C668        C770   1.480       .  S
C668        O962   1.268       .  A
C668        O678   1.271       .  A
O669       Ni685   1.915       .  S
O669        C675   1.275       .  A
O670       Ni963   1.932       .  S
O670        C675   1.277   1_556  A
C671        C763   1.469       .  S
O672       Ni963   1.905   1_554  S
O672        C674   1.269       .  A
O673       Ni684   1.921   1_655  S
C674        C753   1.484       .  S
C674        O680   1.271       .  A
C675        C701   1.463       .  S
H676        O677   0.965       .  S
O677       Ni685   1.908       .  S
O677       Ni679   1.896       .  S
O677       Ni684   1.902   1_655  S
O678       Ni975   1.922   1_455  S
Ni679       O974   1.922   1_654  S
Ni679       O979   1.895   1_554  S
Ni679       O681   1.919       .  S
O680       Ni685   1.922       .  S
C682        C863   1.473       .  S
C682        O683   1.266       .  A
O683       Ni975   1.895       .  S
H686        O959   0.968       .  S
O687       Ni693   1.933       .  S
O688       Ni711   1.903       .  S
O688        C697   1.270       .  A
O689       Ni693   1.896   1_654  S
O689       Ni711   1.895       .  S
O689       H1008   0.966   1_554  S
C690        O707   1.274       .  A
C690        O699   1.276       .  A
O691        C697   1.273       .  A
O692       Ni710   1.905       .  S
O692        C990   1.269       .  A
Ni693       O696   1.927   1_556  S
Ni693       O698   1.903   1_556  S
C694        C853   1.487       .  S
C694        O988   1.269       .  A
C694        O704   1.273       .  A
O695       Ni711   1.924       .  S
O695        C701   1.277       .  A
O696        C701   1.277   1_455  A
C697        C730   1.476       .  S
O698        C700   1.269       .  A
O699       Ni710   1.926       .  S
C700        C743   1.491       .  S
C700        O706   1.276       .  A
H702        O703   0.966       .  S
O703       Ni705   1.896       .  S
O703       Ni710   1.900       .  S
O704      Ni1001   1.930       .  S
Ni705      O1000   1.930   1_554  S
Ni705      O1005   1.895   1_654  S
Ni705       O707   1.914       .  S
O706       Ni711   1.939   1_455  S
C708        C783   1.477       .  S
C708        O709   1.266       .  A
O709      Ni1001   1.895   1_455  S
H712        O985   0.966       .  S
C713        C714   1.412       .  A
C713        C718   1.390       .  A
C713        C833   1.477       .  S
C714        C715   1.408       .  A
C714        C803   1.475       .  S
C715        C716   1.407       .  A
C715        H720   1.083       .  S
C716        C717   1.414       .  A
C716        C740   1.481       .  S
C717        C718   1.394       .  A
C717        C760   1.474       .  S
C718        H719   1.085       .  S
C721        C722   1.412       .  A
C721        C726   1.405       .  A
C721        C823   1.477       .  S
C722        C723   1.393       .  A
C722        C793   1.470       .  S
C723        C724   1.392       .  A
C723        H728   1.085       .  S
C724        C725   1.413       .  A
C724        C733   1.479       .  S
C725        C726   1.406       .  A
C725        C750   1.474       .  S
C726        H727   1.084       .  S
C729        C730   1.408       .  A
C729        C734   1.393       .  A
C729        H736   1.083       .  S
C730        C731   1.406       .  A
C731        C732   1.397       .  A
C731        F738   1.357       .  S
C732        C733   1.404       .  A
C732        H737   1.082       .  S
C733        C734   1.402       .  A
C734        F735   1.358       .  S
C739        C740   1.399       .  A
C739        C744   1.393       .  A
C739        H746   1.084       .  S
C740        C741   1.404       .  A
C741        C742   1.405       .  A
C741        F748   1.357       .  S
C742        C743   1.410       .  A
C742        H747   1.083       .  S
C743        C744   1.414       .  A
C744        F745   1.358       .  S
C749        C750   1.399       .  A
C749        C754   1.393       .  A
C749        H756   1.084       .  S
C750        C751   1.402       .  A
C751        C752   1.400       .  A
C751        F758   1.357       .  S
C752        C753   1.410       .  A
C752        H757   1.083       .  S
C753        C754   1.411       .  A
C754        F755   1.358       .  S
C759        C760   1.403       .  A
C759        C764   1.396       .  A
C759        H766   1.083       .  S
C760        C761   1.402       .  A
C761        C762   1.389       .  A
C761        F768   1.358       .  S
C762        C763   1.405       .  A
C762        H767   1.083       .  S
C763        C764   1.406       .  A
C764        F765   1.357       .  S
C769        C770   1.407       .  A
C769        C774   1.390       .  A
C769       H1072   1.083       .  S
C770        C771   1.412       .  A
C771        C772   1.399       .  A
C771        F778   1.357       .  S
C772        C773   1.400       .  A
C772        H777   1.083       .  S
C773        C774   1.400       .  A
C774        F775   1.358       .  S
H776       C1065   1.083   1_554  S
C779        C780   1.404       .  A
C779        C784   1.397       .  A
C779        H786   1.082       .  S
C780        C781   1.403       .  A
C781        C782   1.394       .  A
C781       F1084   1.358       .  S
C782        C783   1.406       .  A
C782       H1083   1.083       .  S
C783        C784   1.408       .  A
H787       C1078   1.083       .  S
F788       C1077   1.358       .  S
C789        C790   1.404       .  A
C789        C794   1.391       .  A
C789        H796   1.084       .  S
C790        C791   1.404       .  A
C791        C792   1.395       .  A
C791        F798   1.358       .  S
C792        C793   1.402       .  A
C792        H797   1.082       .  S
C793        C794   1.401       .  A
C794        F795   1.358       .  S
C799        C800   1.407       .  A
C799        C804   1.394       .  A
C799        H806   1.083       .  S
C800        C801   1.413       .  A
C801        C802   1.400       .  A
C801        F808   1.357       .  S
C802        C803   1.400       .  A
C802        H807   1.083       .  S
C803        C804   1.403       .  A
C804        F805   1.358       .  S
C809        C810   1.398       .  A
C809        C814   1.390       .  A
C809        H816   1.084       .  S
C810        C811   1.404       .  A
C811        C812   1.397       .  A
C811        F818   1.357       .  S
C812        C813   1.404       .  A
C812        H817   1.083       .  S
C813        C814   1.409       .  A
C814        F815   1.358       .  S
C819        C820   1.408       .  A
C819        C824   1.401       .  A
C819        H826   1.083       .  S
C820        C821   1.413       .  A
C821        C822   1.396       .  A
C821        F828   1.358       .  S
C822        C823   1.399       .  A
C822        H827   1.084       .  S
C823        C824   1.403       .  A
C824        F825   1.357       .  S
C829        C830   1.406       .  A
C829        C834   1.394       .  A
C829        H836   1.083       .  S
C830        C831   1.406       .  A
C831        C832   1.396       .  A
C831        F838   1.357       .  S
C832        C833   1.403       .  A
C832        H837   1.083       .  S
C833        C834   1.403       .  A
C834        F835   1.358       .  S
C839        C840   1.409       .  A
C839        C844   1.401       .  A
C839        H846   1.083       .  S
C840        C841   1.413       .  A
C841        C842   1.391       .  A
C841        F848   1.358       .  S
C842        C843   1.398       .  A
C842        H847   1.084       .  S
C843        C844   1.402       .  A
C844        F845   1.357       .  S
C849        C850   1.400       .  A
C849        C854   1.394       .  A
C849        H856   1.084       .  S
C850        C851   1.402       .  A
C851        C852   1.402       .  A
C851        F858   1.357       .  S
C852        C853   1.410       .  A
C852        H857   1.083       .  S
C853        C854   1.412       .  A
C854        F855   1.358       .  S
C859        C860   1.399       .  A
C859        C864   1.390       .  A
C859        H866   1.084       .  S
C860        C861   1.405       .  A
C861        C862   1.399       .  A
C861        F868   1.357       .  S
C862        C863   1.406       .  A
C862        H867   1.083       .  S
C863        C864   1.408       .  A
C864        F865   1.358       .  S
C869        C870   1.402       .  A
C869        C874   1.402       .  A
C869        H876   1.083       .  S
C870        C871   1.400       .  A
C871        C872   1.391       .  A
C871        F878   1.358       .  S
C872        C873   1.408       .  A
C872        H877   1.083       .  S
C873        C874   1.412       .  A
C874        F875   1.357       .  S
C879        C880   1.402       .  A
C879        C884   1.396       .  A
C879        H886   1.083       .  S
C880        C881   1.411       .  A
C881        C882   1.397       .  A
C881        F888   1.358       .  S
C882        C883   1.401       .  A
C882        H887   1.083       .  S
C883        C884   1.406       .  A
C884        F885   1.356       .  S
C889        C890   1.414       .  A
C889        C894   1.393       .  A
C889       C1179   1.481       .  S
C890        C891   1.406       .  A
C890       C1166   1.475       .  S
C891        C892   1.405       .  A
C891        H896   1.084       .  S
C892        C893   1.413       .  A
C892       C1146   1.477       .  S
C893        C894   1.396       .  A
C893       C1156   1.474       .  S
C894        H895   1.085       .  S
O897       Ni903   1.930       .  S
O897        C918   1.273       .  A
O898       Ni921   1.896       .  S
O898        C907   1.266       .  A
O899       Ni903   1.901       .  S
O899       Ni921   1.895       .  S
O899       Ni915   1.906       .  S
O899        H922   0.966       .  S
C900        C926   1.459       .  S
C900        O917   1.274       .  A
C900        O909   1.275       .  A
O901       Ni920   1.931       .  S
O901        C907   1.273       .  A
O902       Ni920   1.898       .  S
O902        C904   1.268       .  A
Ni903       O906   1.928       .  S
Ni903       O908   1.904       .  S
C904       C1136   1.484       .  S
C904        O914   1.274       .  A
O905       Ni921   1.920       .  S
O905        C911   1.276       .  A
O906        C911   1.276       .  A
C907       C1126   1.474       .  S
O908        C910   1.268       .  A
O909       Ni920   1.926       .  S
C910       C1116   1.488       .  S
C910        O916   1.273       .  A
C911        C937   1.462       .  S
H912        O913   0.965       .  S
O913       Ni921   1.908       .  S
O913       Ni915   1.899       .  S
O913       Ni920   1.901       .  S
O914       Ni915   1.931       .  S
Ni915       O919   1.901       .  S
Ni915       O917   1.915       .  S
O916       Ni921   1.929       .  S
C918       C1176   1.476       .  S
C918        O919   1.269       .  A
O923       Ni929   1.930       .  S
O924       Ni947   1.894       .  S
O924        C933   1.265       .  A
O925       Ni929   1.900       .  S
O925       Ni947   1.894       .  S
O925        H948   0.967       .  S
C926        O943   1.278       .  A
C926        O935   1.275       .  A
O927        C933   1.271       .  A
O928       Ni946   1.900       .  S
O928        C930   1.269       .  A
Ni929       O932   1.933       .  S
Ni929       O934   1.907       .  S
C930       C1169   1.485       .  S
C930        O940   1.273       .  A
O931       Ni947   1.913       .  S
O931        C937   1.274       .  A
O932        C937   1.278       .  A
C933       C1086   1.464       .  S
O934        C936   1.269       .  A
O935       Ni946   1.920       .  S
C936       C1096   1.485       .  S
C936        O942   1.271       .  A
H938        O939   0.966       .  S
O939       Ni941   1.893       .  S
O939       Ni946   1.898       .  S
O940       Ni941   1.929       .  S
Ni941       O945   1.898       .  S
Ni941       O943   1.925       .  S
O942       Ni947   1.923       .  S
C944       C1109   1.471       .  S
C944        O945   1.268       .  A
C949        C950   1.411       .  A
C949        C954   1.391       .  A
C949       C1106   1.471       .  S
C950        C951   1.403       .  A
C950       C1139   1.473       .  S
C951        C952   1.404       .  A
C951        H956   1.084       .  S
C952        C953   1.414       .  A
C952       C1069   1.469       .  S
C953        C954   1.392       .  A
C953       C1076   1.481       .  S
C954        H955   1.085       .  S
O957       Ni963   1.933       .  S
O957        C978   1.275       .  A
O958       Ni981   1.894   1_455  S
O958        C967   1.265       .  A
O959       Ni981   1.894       .  S
O959       Ni975   1.906       .  S
C960        C986   1.458       .  S
C960        O977   1.275       .  A
C960        O969   1.274       .  A
O961       Ni980   1.922       .  S
O961        C967   1.271       .  A
O962       Ni980   1.901       .  S
C964       C1066   1.480   1_554  S
C964        O974   1.271   1_554  A
O965       Ni981   1.915       .  S
O965        C971   1.275       .  A
O966        C971   1.277       .  A
C967       C1059   1.469       .  S
O968        C970   1.269       .  A
O969       Ni980   1.921   1_655  S
C970       C1049   1.484       .  S
C970        O976   1.271       .  A
C971        C997   1.463       .  S
H972        O973   0.965       .  S
O973       Ni981   1.908       .  S
O973       Ni975   1.896       .  S
O973       Ni980   1.902   1_655  S
Ni975       O977   1.919       .  S
O976       Ni981   1.922       .  S
C978       C1159   1.473       .  S
C978        O979   1.266       .  A
O983       Ni989   1.933       .  S
O984      Ni1007   1.903       .  S
O984        C993   1.270       .  A
O985       Ni989   1.896   1_655  S
O985      Ni1007   1.895       .  S
C986       O1003   1.274       .  A
C986        O995   1.276       .  A
O987        C993   1.273       .  A
O988      Ni1006   1.905       .  S
Ni989       O992   1.927       .  S
Ni989       O994   1.903       .  S
C990       C1149   1.487   1_554  S
C990       O1000   1.273   1_554  A
O991      Ni1007   1.924       .  S
O991        C997   1.277       .  A
O992        C997   1.277   1_455  A
C993       C1026   1.476       .  S
O994        C996   1.269       .  A
O995      Ni1006   1.926       .  S
C996       C1039   1.491       .  S
C996       O1002   1.276       .  A
H998        O999   0.966       .  S
O999      Ni1001   1.896       .  S
O999      Ni1006   1.900       .  S
Ni1001     O1003   1.914       .  S
O1002     Ni1007   1.939   1_455  S
C1004      C1079   1.477       .  S
C1004      O1005   1.266       .  A
C1009      C1010   1.412       .  A
C1009      C1014   1.390       .  A
C1009      C1129   1.477       .  S
C1010      C1011   1.408       .  A
C1010      C1099   1.475       .  S
C1011      C1012   1.407       .  A
C1011      H1016   1.083       .  S
C1012      C1013   1.414       .  A
C1012      C1036   1.481       .  S
C1013      C1014   1.394       .  A
C1013      C1056   1.474       .  S
C1014      H1015   1.085       .  S
C1017      C1018   1.412       .  A
C1017      C1022   1.405       .  A
C1017      C1119   1.477       .  S
C1018      C1019   1.393       .  A
C1018      C1089   1.470       .  S
C1019      C1020   1.392       .  A
C1019      H1024   1.085       .  S
C1020      C1021   1.413       .  A
C1020      C1029   1.479       .  S
C1021      C1022   1.406       .  A
C1021      C1046   1.474       .  S
C1022      H1023   1.084       .  S
C1025      C1026   1.408       .  A
C1025      C1030   1.393       .  A
C1025      H1032   1.083       .  S
C1026      C1027   1.406       .  A
C1027      C1028   1.397       .  A
C1027      F1034   1.357       .  S
C1028      C1029   1.404       .  A
C1028      H1033   1.082       .  S
C1029      C1030   1.402       .  A
C1030      F1031   1.358       .  S
C1035      C1036   1.399       .  A
C1035      C1040   1.393       .  A
C1035      H1042   1.084       .  S
C1036      C1037   1.404       .  A
C1037      C1038   1.405       .  A
C1037      F1044   1.357       .  S
C1038      C1039   1.410       .  A
C1038      H1043   1.083       .  S
C1039      C1040   1.414       .  A
C1040      F1041   1.358       .  S
C1045      C1046   1.399       .  A
C1045      C1050   1.393       .  A
C1045      H1052   1.084       .  S
C1046      C1047   1.402       .  A
C1047      C1048   1.400       .  A
C1047      F1054   1.357       .  S
C1048      C1049   1.410       .  A
C1048      H1053   1.083       .  S
C1049      C1050   1.411       .  A
C1050      F1051   1.358       .  S
C1055      C1056   1.403       .  A
C1055      C1060   1.396       .  A
C1055      H1062   1.083       .  S
C1056      C1057   1.402       .  A
C1057      C1058   1.389       .  A
C1057      F1064   1.358       .  S
C1058      C1059   1.405       .  A
C1058      H1063   1.083       .  S
C1059      C1060   1.406       .  A
C1060      F1061   1.357       .  S
C1065      C1066   1.407       .  A
C1065      C1070   1.390       .  A
C1066      C1067   1.412       .  A
C1067      C1068   1.399       .  A
C1067      F1074   1.357       .  S
C1068      C1069   1.400       .  A
C1068      H1073   1.083       .  S
C1069      C1070   1.400       .  A
C1070      F1071   1.358       .  S
C1075      C1076   1.404       .  A
C1075      C1080   1.397       .  A
C1075      H1082   1.082       .  S
C1076      C1077   1.403       .  A
C1077      C1078   1.394       .  A
C1078      C1079   1.406       .  A
C1079      C1080   1.408       .  A
C1085      C1086   1.404       .  A
C1085      C1090   1.391       .  A
C1085      H1092   1.084       .  S
C1086      C1087   1.404       .  A
C1087      C1088   1.395       .  A
C1087      F1094   1.358       .  S
C1088      C1089   1.402       .  A
C1088      H1093   1.082       .  S
C1089      C1090   1.401       .  A
C1090      F1091   1.358       .  S
C1095      C1096   1.407       .  A
C1095      C1100   1.394       .  A
C1095      H1102   1.083       .  S
C1096      C1097   1.413       .  A
C1097      C1098   1.400       .  A
C1097      F1104   1.357       .  S
C1098      C1099   1.400       .  A
C1098      H1103   1.083       .  S
C1099      C1100   1.403       .  A
C1100      F1101   1.358       .  S
C1105      C1106   1.398       .  A
C1105      C1110   1.390       .  A
C1105      H1112   1.084       .  S
C1106      C1107   1.404       .  A
C1107      C1108   1.397       .  A
C1107      F1114   1.357       .  S
C1108      C1109   1.404       .  A
C1108      H1113   1.083       .  S
C1109      C1110   1.409       .  A
C1110      F1111   1.358       .  S
C1115      C1116   1.408       .  A
C1115      C1120   1.401       .  A
C1115      H1122   1.083       .  S
C1116      C1117   1.413       .  A
C1117      C1118   1.396       .  A
C1117      F1124   1.358       .  S
C1118      C1119   1.399       .  A
C1118      H1123   1.084       .  S
C1119      C1120   1.403       .  A
C1120      F1121   1.357       .  S
C1125      C1126   1.406       .  A
C1125      C1130   1.394       .  A
C1125      H1132   1.083       .  S
C1126      C1127   1.406       .  A
C1127      C1128   1.396       .  A
C1127      F1134   1.357       .  S
C1128      C1129   1.403       .  A
C1128      H1133   1.083       .  S
C1129      C1130   1.403       .  A
C1130      F1131   1.358       .  S
C1135      C1136   1.409       .  A
C1135      C1140   1.401       .  A
C1135      H1142   1.083       .  S
C1136      C1137   1.413       .  A
C1137      C1138   1.391       .  A
C1137      F1144   1.358       .  S
C1138      C1139   1.398       .  A
C1138      H1143   1.084       .  S
C1139      C1140   1.402       .  A
C1140      F1141   1.357       .  S
C1145      C1146   1.400       .  A
C1145      C1150   1.394       .  A
C1145      H1152   1.084       .  S
C1146      C1147   1.402       .  A
C1147      C1148   1.402       .  A
C1147      F1154   1.357       .  S
C1148      C1149   1.410       .  A
C1148      H1153   1.083       .  S
C1149      C1150   1.412       .  A
C1150      F1151   1.358   1_556  S
C1155      C1156   1.399       .  A
C1155      C1160   1.390       .  A
C1155      H1162   1.084       .  S
C1156      C1157   1.405       .  A
C1157      C1158   1.399       .  A
C1157      F1164   1.357       .  S
C1158      C1159   1.406       .  A
C1158      H1163   1.083       .  S
C1159      C1160   1.408       .  A
C1160      F1161   1.358       .  S
C1165      C1166   1.402       .  A
C1165      C1170   1.402       .  A
C1165      H1172   1.083       .  S
C1166      C1167   1.400       .  A
C1167      C1168   1.391       .  A
C1167      F1174   1.358       .  S
C1168      C1169   1.408       .  A
C1168      H1173   1.083       .  S
C1169      C1170   1.412       .  A
C1170      F1171   1.357       .  S
C1175      C1176   1.402       .  A
C1175      C1180   1.396       .  A
C1175      H1182   1.083       .  S
C1176      C1177   1.411       .  A
C1177      C1178   1.397       .  A
C1177      F1184   1.358       .  S
C1178      C1179   1.401       .  A
C1178      H1183   1.083       .  S
C1179      C1180   1.406       .  A
C1180      F1181   1.356       .  S
