geometry optimzed in LAMMPS
_audit_creation_date              2020-11-30 
_audit_creation_method            'lammps2cif' 
_symmetry_space_group_name_H-M    'P1' 
_symmetry_Int_Tables_number       1 
_symmetry_cell_setting            triclinic 
loop_ 
_symmetry_equiv_pos_as_xyz 
  x,y,z 
_cell_length_a                    41.68094112 
_cell_length_b                    41.89121264469419 
_cell_length_c                    42.08970449761628 
_cell_angle_alpha                 89.93661578325174 
_cell_angle_beta                  90.01466593051816 
_cell_angle_gamma                 89.93440292217139 
loop_ 
_atom_site_label 
_atom_site_type_symbol 
_atom_site_fract_x 
_atom_site_fract_y 
_atom_site_fract_z 
_atom_site_charge 
O1          O  0.03238773  0.46824855  0.30284019    -0.78500
O2          O  0.96226220  0.53635332  0.30185889    -0.78500
O3          O  0.06476448  0.53462456  0.26402847    -0.78500
O4          O  0.92915570  0.46977101  0.26483627    -0.78500
O5          O  0.02890840  0.53694527  0.30205477    -0.78600
O6          O  0.96472270  0.46702058  0.30322199    -0.78500
O7          O  0.92736155  0.53239792  0.26324687    -0.78500
O8          O  0.06708964  0.47216757  0.26398206    -0.78500
C9          C  0.06105434  0.46618115  0.29308311     1.11200
C10         C  0.93360978  0.53798314  0.29224020     1.11100
C11         C  0.05748000  0.54007886  0.29280938     1.11200
C12         C  0.93601846  0.46391075  0.29383376     1.11100
O13         O  0.96733813  0.43340384  0.24213751    -0.78500
O14         O  0.02751512  0.57167142  0.24073516    -0.78600
O15         O  0.03220051  0.46984548  0.20282501    -0.78500
O16         O  0.96173525  0.53485375  0.20230052    -0.78500
O17         O  0.96422391  0.57033966  0.24040774    -0.78500
O18         O  0.03023956  0.43455994  0.24124726    -0.78500
O19         O  0.96400308  0.46829909  0.20348197    -0.78400
O20         O  0.03141211  0.53643316  0.20258338    -0.78500
Co21       Co  0.99856915  0.45544801  0.27196966     1.51500
Co22       Co  0.99584723  0.54938674  0.27095956     1.51700
Co23       Co  0.04425172  0.50315315  0.23372822     1.51600
Co24       Co  0.95009286  0.50134904  0.23380343     1.51500
O25         O  0.99715151  0.50237129  0.25269094    -1.40400
C26         C  0.96140719  0.43996841  0.21323942     1.11100
C27         C  0.03447541  0.56491477  0.21198003     1.11200
C28         C  0.03584677  0.44151753  0.21231429     1.11200
C29         C  0.95885289  0.56347400  0.21144988     1.11100
O30         O  0.53656147  0.02711100  0.29876511    -0.78500
O31         O  0.46576981  0.96392419  0.30082680    -0.78500
O32         O  0.47121685  0.06421782  0.25973557    -0.78500
O33         O  0.53043348  0.92517662  0.26262321    -0.78500
O34         O  0.46799970  0.02972641  0.29862017    -0.78600
O35         O  0.53512851  0.96081842  0.30028025    -0.78500
O36         O  0.46766868  0.92768658  0.26347351    -0.78500
O37         O  0.53448884  0.06218049  0.26014971    -0.78500
C38         C  0.54062087  0.05521893  0.28896619     1.11200
C39         C  0.46275549  0.93522159  0.29236428     1.11100
C40         C  0.46456128  0.05776645  0.28852120     1.11200
C41         C  0.53630858  0.93196398  0.29151945     1.11100
O42         O  0.56835322  0.96116611  0.23866374    -0.78500
O43         O  0.43289918  0.02780279  0.23727380    -0.78600
O44         O  0.53556875  0.02800426  0.19902177    -0.78500
O45         O  0.46726413  0.96205048  0.20164583    -0.78500
O46         O  0.43161332  0.96528234  0.23950412    -0.78500
O47         O  0.57101567  0.02400949  0.23722029    -0.78500
O48         O  0.53223008  0.95957370  0.20104374    -0.78400
O49         O  0.46844812  0.02981803  0.19895444    -0.78500
Co50       Co  0.54831559  0.99345389  0.26840244     1.51500
Co51       Co  0.45400428  0.99659373  0.26873534     1.51700
Co52       Co  0.50234049  0.04148632  0.23000791     1.51600
Co53       Co  0.49950110  0.94786985  0.23239929     1.63500
O54         O  0.50108262  0.99488325  0.24996179    -1.40400
C55         C  0.56077740  0.95608251  0.20992036     1.11100
C56         C  0.43981127  0.03332954  0.20823703     1.11200
C57         C  0.56427559  0.03071467  0.20833518     1.11200
C58         C  0.43872601  0.95962458  0.21073632     1.11100
O59         O  0.19927745  0.03516283  0.46516069    -0.78500
O60         O  0.19933233  0.96512245  0.53387111    -0.78500
O61         O  0.23920736  0.96882990  0.43193539    -0.78500
O62         O  0.23739880  0.03317503  0.56813634    -0.78500
O63         O  0.20011943  0.96485545  0.46657469    -0.78600
O64         O  0.19866935  0.03665434  0.53301398    -0.78500
O65         O  0.23778584  0.96984910  0.56904850    -0.78500
O66         O  0.23874419  0.03143258  0.43094038    -0.78500
C67         C  0.20924399  0.03665290  0.43669796     1.11200
C68         C  0.20866727  0.96313347  0.56248808     1.11100
C69         C  0.20997600  0.96241486  0.43819132     1.11200
C70         C  0.20814710  0.03937305  0.56157367     1.11100
O71         O  0.26074167  0.06995118  0.53009454    -0.78500
O72         O  0.26268767  0.93254252  0.46971323    -0.78600
O73         O  0.30042775  0.03513806  0.46503799    -0.78500
O74         O  0.30049803  0.96745726  0.53616251    -0.78500
O75         O  0.26209848  0.93207182  0.53247690    -0.78500
O76         O  0.26121117  0.06979149  0.46736491    -0.78500
O77         O  0.29968222  0.03494153  0.53448469    -0.78400
O78         O  0.30080551  0.96838647  0.46697163    -0.78500
Co79       Co  0.23038125  0.04809923  0.49899959     1.51500
Co80       Co  0.23143627  0.95343000  0.50063646     1.51700
Co81       Co  0.26931595  0.00093313  0.45346394     1.51600
Co82       Co  0.26839351  0.00134951  0.54723785     1.51500
O83         O  0.24969530  0.00097319  0.50015435    -1.40400
C84         C  0.29009608  0.06363207  0.53574290     1.11100
C85         C  0.29163285  0.93991984  0.46354000     1.11200
C86         C  0.29060896  0.06351998  0.46148540     1.11200
C87         C  0.29131361  0.93869990  0.53861485     1.11100
O88         O  0.03275022  0.30268277  0.53095112    -0.78500
O89         O  0.96760198  0.29835493  0.46224473    -0.78500
O90         O  0.06905124  0.26260299  0.46684034    -0.78500
O91         O  0.93068624  0.26273581  0.52722016    -0.78500
O92         O  0.03223819  0.29949608  0.46310784    -0.78600
O93         O  0.96565655  0.30165383  0.53000531    -0.78500
O94         O  0.93216307  0.26007076  0.46489440    -0.78500
O95         O  0.06874849  0.26465606  0.52913400    -0.78500
C96         C  0.06163214  0.29386079  0.53391306     1.11200
C97         C  0.93918355  0.28902012  0.45959463     1.11100
C98         C  0.06090589  0.29101997  0.46004091     1.11200
C99         C  0.93705093  0.29207953  0.53257047     1.11100
O100        O  0.96787975  0.24067900  0.56519206    -0.78500
O101        O  0.03337006  0.23706055  0.43010548    -0.78600
O102        O  0.03443098  0.20261942  0.53167149    -0.78500
O103        O  0.96621770  0.19870070  0.46477049    -0.78500
O104        O  0.96999537  0.23615349  0.42866939    -0.78500
O105        O  0.03114075  0.24163361  0.56594438    -0.78500
O106        O  0.96595638  0.20123332  0.53110202    -0.78400
O107        O  0.03585250  0.20043408  0.46694545    -0.78500
Co108      Co  0.99939539  0.27108782  0.54351141     1.51500
Co109      Co  0.00067513  0.26750924  0.45020933     1.51700
Co110      Co  0.04763515  0.23282771  0.49863692     1.51600
Co111      Co  0.95327405  0.23107081  0.49713173     1.51500
O112        O  0.00019390  0.25056261  0.49737998    -1.40400
C113        C  0.96217330  0.21146118  0.55899841     1.11100
C114        C  0.04065319  0.20880598  0.43867015     1.11200
C115        C  0.03761110  0.21265570  0.55957333     1.11200
C116        C  0.96429669  0.20718103  0.43593036     1.11100
O117        O  0.46334268  0.30375623  0.02942276    -0.78500
O118        O  0.53579338  0.30177125  0.96128886    -0.78500
O119        O  0.53100954  0.26837667  0.06487859    -0.78500
O120        O  0.46947920  0.26194842  0.92847479    -0.78500
O121        O  0.53511545  0.30540143  0.02822697    -0.78600
O122        O  0.46454352  0.30155473  0.96225016    -0.78500
O123        O  0.53276237  0.26137317  0.92845180    -0.78500
O124        O  0.46813848  0.26615918  0.06526017    -0.78500
C125        C  0.46077606  0.29475888  0.05808642     1.11200
C126        C  0.53822537  0.29082427  0.93337443     1.11100
C127        C  0.53684082  0.29717565  0.05717951     1.11200
C128        C  0.46295645  0.29125837  0.93400483     1.11100
O129        O  0.43226937  0.23913419  0.96612199    -0.78500
O130        O  0.56957808  0.24400272  0.02988392    -0.78600
O131        O  0.46906213  0.20385696  0.03246232    -0.78500
O132        O  0.53528396  0.20140480  0.96479257    -0.78500
O133        O  0.57049421  0.24013002  0.96695549    -0.78500
O134        O  0.43203779  0.24063481  0.02873938    -0.78500
O135        O  0.46815110  0.20101504  0.96518404    -0.78400
O136        O  0.53426992  0.20571270  0.03258004    -0.78500
Co137      Co  0.45276485  0.27101745  0.99656862     1.51500
Co138      Co  0.54811980  0.27242949  0.99651279     1.51700
Co139      Co  0.50070193  0.23632899  0.04433305     1.51600
Co140      Co  0.50127951  0.23211575  0.95132349     1.51500
O141        O  0.50074914  0.25344196  0.99711644    -1.40400
C142        C  0.43928581  0.20978937  0.96258088     1.11100
C143        C  0.56242700  0.21533421  0.03694831     1.11200
C144        C  0.44040196  0.21233421  0.03617326     1.11200
C145        C  0.56401809  0.21075453  0.96186854     1.11100
O146        O  0.29846423  0.53071988  0.03127652    -0.78500
O147        O  0.29449671  0.46289442  0.96502434    -0.78500
O148        O  0.25810215  0.46504788  0.06590881    -0.78500
O149        O  0.25844265  0.52931784  0.93004653    -0.78500
O150        O  0.29576933  0.46227753  0.02988645    -0.78600
O151        O  0.29742996  0.53101718  0.96486617    -0.78500
O152        O  0.25591782  0.46626261  0.92999957    -0.78500
O153        O  0.26043118  0.52772525  0.06701553    -0.78500
C154        C  0.28974304  0.53347120  0.05996058     1.11200
C155        C  0.28491067  0.45963997  0.93690986     1.11100
C156        C  0.28691439  0.45921269  0.05826004     1.11200
C157        C  0.28806499  0.53376632  0.93646987     1.11100
O158        O  0.23588920  0.56687889  0.96781046    -0.78500
O159        O  0.23336234  0.42817674  0.02965365    -0.78600
O160        O  0.19768599  0.53023630  0.03298326    -0.78500
O161        O  0.19423424  0.46627035  0.96461188    -0.78500
O162        O  0.23198790  0.42988944  0.96738415    -0.78500
O163        O  0.23681105  0.56501803  0.03031369    -0.78500
O164        O  0.19611511  0.53303026  0.96459560    -0.78400
O165        O  0.19550454  0.46403390  0.03425183    -0.78500
Co166      Co  0.26656906  0.54382434  0.99845872     1.51500
Co167      Co  0.26367011  0.45018108  0.99797508     1.51700
Co168      Co  0.22818952  0.49697167  0.04553738     1.51600
Co169      Co  0.22659314  0.49870125  0.95176069     1.51500
O170        O  0.24608982  0.49740657  0.99841141    -1.40400
C171        C  0.20614475  0.56146441  0.96306561     1.11100
C172        C  0.20442138  0.43521952  0.03653205     1.11200
C173        C  0.20774012  0.55827148  0.03650449     1.11200
C174        C  0.20272036  0.43730422  0.96309938     1.11100
O175        O  0.53371720  0.07017337  0.73114887    -0.78500
O176        O  0.46794282  0.93418379  0.73995783    -0.78500
O177        O  0.53452450  0.96617572  0.69725724    -0.78500
O178        O  0.46663776  0.03289052  0.69771986    -0.78500
O179        O  0.53141807  0.93274806  0.73725435    -0.78600
O180        O  0.47063841  0.07057824  0.73318909    -0.78500
O181        O  0.46453220  0.96822327  0.70077513    -0.78500
O182        O  0.53611774  0.03356113  0.69410559    -0.78500
C183        C  0.53918183  0.06246788  0.70244992     1.11200
C184        C  0.46049088  0.94045683  0.71129753     1.11100
C185        C  0.53638555  0.93787775  0.70775268     1.11200
C186        C  0.46280034  0.06152907  0.70541467     1.11100
O187        O  0.47185982  0.03908256  0.79624488    -0.78500
O188        O  0.53616854  0.96941609  0.79729102    -0.78600
O189        O  0.57148782  0.03347963  0.75464970    -0.78500
O190        O  0.43212402  0.97317095  0.76310310    -0.78500
O191        O  0.46886963  0.97008645  0.80011058    -0.78500
O192        O  0.53693223  0.03798165  0.79339191    -0.78500
O193        O  0.43417884  0.03601982  0.76043002    -0.78400
O194        O  0.57043194  0.97036201  0.75781560    -0.78500
Co195      Co  0.50321301  0.05005796  0.76327022     1.51500
Co196      Co  0.50130237  0.95616751  0.76799977     1.51700
Co197      Co  0.54849066  0.00087131  0.72652387     1.51600
Co198      Co  0.45378245  0.00251137  0.73071297     1.51500
O199        O  0.50177397  0.00231212  0.74703966    -1.40400
C200        C  0.44319038  0.04356052  0.78832444     1.11100
C201        C  0.56458005  0.96632273  0.78729353     1.11200
C202        C  0.56498324  0.04142595  0.78313022     1.11200
C203        C  0.43972057  0.96782649  0.79191551     1.11100
O204        O  0.73885297  0.52977751  0.06772758    -0.78500
O205        O  0.74165959  0.46405128  0.93239710    -0.78500
O206        O  0.70148937  0.53031136  0.96573343    -0.78500
O207        O  0.70365291  0.46429872  0.03263177    -0.78500
O208        O  0.74014321  0.52741671  0.93070914    -0.78600
O209        O  0.74150716  0.46727282  0.06835151    -0.78500
O210        O  0.70360002  0.46180939  0.96799003    -0.78500
O211        O  0.70065741  0.53203086  0.03202114    -0.78500
C212        C  0.70957643  0.53514765  0.06057976     1.11200
C213        C  0.71290142  0.45710428  0.93997130     1.11100
C214        C  0.71062972  0.53237457  0.93720580     1.11200
C215        C  0.71259900  0.46142211  0.06094984     1.11100
O216        O  0.80398634  0.46627208  0.03594909    -0.78500
O217        O  0.80256558  0.53113826  0.96455909    -0.78600
O218        O  0.76172966  0.56703363  0.03045778    -0.78500
O219        O  0.76590385  0.42827792  0.97048412    -0.78500
O220        O  0.80399687  0.46390439  0.96559797    -0.78500
O221        O  0.80139113  0.53301972  0.03450821    -0.78500
O222        O  0.76624110  0.43009397  0.03273611    -0.78400
O223        O  0.76318173  0.56573139  0.96756849    -0.78500
Co224      Co  0.77118119  0.49904291  0.04699408     1.51500
Co225      Co  0.77169931  0.49684164  0.95281659     1.51700
Co226      Co  0.73242454  0.54420047  0.99886765     1.51600
Co227      Co  0.73514825  0.45056685  0.00090144     1.51500
O228        O  0.75295663  0.49771676  0.99983196    -1.40400
C229        C  0.79522293  0.43750851  0.03897490     1.11100
C230        C  0.79280832  0.55971526  0.96283790     1.11200
C231        C  0.79058220  0.56087091  0.03831351     1.11200
C232        C  0.79503180  0.43502857  0.96459520     1.11100
O233        O  0.06977611  0.73398760  0.53169913    -0.78500
O234        O  0.93335015  0.73607385  0.46742638    -0.78500
O235        O  0.96703035  0.69544725  0.53347390    -0.78500
O236        O  0.03562906  0.69735643  0.46475956    -0.78500
O237        O  0.93180153  0.73413654  0.53032082    -0.78600
O238        O  0.07097763  0.73557463  0.46953792    -0.78500
O239        O  0.96918728  0.69797160  0.46426906    -0.78500
O240        O  0.03437822  0.69540599  0.53392651    -0.78500
C241        C  0.06314377  0.70472813  0.53635593     1.11200
C242        C  0.94087049  0.70752737  0.46013782     1.11100
C243        C  0.93818130  0.70474177  0.53519617     1.11200
C244        C  0.06437679  0.70664542  0.46284927     1.11100
O245        O  0.03552640  0.79726186  0.46956300    -0.78500
O246        O  0.96607885  0.79604803  0.53440104    -0.78600
O247        O  0.03242348  0.75641757  0.56905128    -0.78500
O248        O  0.97122893  0.76073200  0.43174673    -0.78500
O249        O  0.96677294  0.79805063  0.46789878    -0.78500
O250        O  0.03493875  0.79532634  0.53452178    -0.78500
O251        O  0.03416040  0.76017452  0.43316359    -0.78400
O252        O  0.96900701  0.75675562  0.56863100    -0.78500
Co253      Co  0.04832746  0.76519884  0.50125928     1.51500
Co254      Co  0.95404082  0.76559472  0.50014910     1.51700
Co255      Co  0.00069548  0.72648473  0.54676696     1.51600
Co256      Co  0.00237976  0.72927064  0.45300456     1.51500
O257        O  0.00128820  0.74648084  0.50033967    -1.40400
C258        C  0.03954521  0.78888351  0.44119534     1.11100
C259        C  0.96426538  0.78624835  0.56274974     1.11200
C260        C  0.03891204  0.78540258  0.56245090     1.11200
C261        C  0.96528077  0.78967971  0.43905602     1.11100
O262        O  0.03144354  0.53332707  0.70249754    -0.78500
O263        O  0.96694681  0.46667913  0.70319496    -0.78500
O264        O  0.06741134  0.46910800  0.74128484    -0.78500
O265        O  0.93051202  0.53245116  0.73891146    -0.78500
O266        O  0.03136938  0.46655310  0.70380969    -0.78600
O267        O  0.96717317  0.53366724  0.70200570    -0.78500
O268        O  0.93017063  0.46939168  0.73994337    -0.78500
O269        O  0.06756233  0.53200225  0.73994083    -0.78500
C270        C  0.05974087  0.53776344  0.71130514     1.11200
C271        C  0.93845694  0.46260944  0.71165440     1.11100
C272        C  0.05975498  0.46268598  0.71273887     1.11200
C273        C  0.93874484  0.53823683  0.71040460     1.11100
O274        O  0.96743596  0.56944975  0.76259829    -0.78500
O275        O  0.03007444  0.43323511  0.76586375    -0.78600
O276        O  0.03274476  0.53436428  0.80113869    -0.78500
O277        O  0.96390481  0.46951893  0.80186375    -0.78500
O278        O  0.96695545  0.43303249  0.76503126    -0.78500
O279        O  0.03083727  0.56957090  0.76300889    -0.78500
O280        O  0.96467705  0.53388111  0.80044067    -0.78400
O281        O  0.03202391  0.47004226  0.80245949    -0.78500
Co282      Co  0.99918943  0.54743356  0.73297706     1.51500
Co283      Co  0.99884805  0.45399442  0.73476259     1.51700
Co284      Co  0.04577207  0.50133405  0.77086549     1.51600
Co285      Co  0.95146078  0.50131356  0.76999221     1.51500
O286        O  0.99879260  0.50103128  0.75227752    -1.40400
C287        C  0.96077024  0.56201256  0.79112567     1.11100
C288        C  0.03607729  0.44161359  0.79426717     1.11200
C289        C  0.03738498  0.56236072  0.79167825     1.11200
C290        C  0.96040531  0.44104518  0.79341675     1.11100
O291        O  0.53615987  0.70660054  0.03366050    -0.78500
O292        O  0.46773530  0.70474158  0.96986783    -0.78500
O293        O  0.47090768  0.74395922  0.06976444    -0.78500
O294        O  0.53309455  0.74257585  0.93325346    -0.78500
O295        O  0.46932221  0.70599418  0.03426597    -0.78600
O296        O  0.53583203  0.70567336  0.96967502    -0.78500
O297        O  0.46940774  0.74189014  0.93361565    -0.78500
O298        O  0.53423936  0.74441807  0.06931639    -0.78500
C299        C  0.54004099  0.71558921  0.06175778     1.11200
C300        C  0.46281389  0.71329039  0.94166233     1.11100
C301        C  0.46536778  0.71501422  0.06235045     1.11200
C302        C  0.53974597  0.71404708  0.94134215     1.11100
O303        O  0.56984055  0.76764110  0.96948725    -0.78500
O304        O  0.43348286  0.76726570  0.03294973    -0.78600
O305        O  0.53571718  0.80639338  0.03608448    -0.78500
O306        O  0.46889988  0.80394783  0.96796083    -0.78500
O307        O  0.43305534  0.76621149  0.97068194    -0.78500
O308        O  0.57119462  0.76803342  0.03201642    -0.78500
O309        O  0.53305027  0.80460175  0.96741118    -0.78400
O310        O  0.46865155  0.80596549  0.03611886    -0.78500
Co311      Co  0.54903695  0.73736639  0.00130371     1.51500
Co312      Co  0.45520808  0.73646657  0.00202649     1.51700
Co313      Co  0.50230875  0.77480189  0.04841277     1.51600
Co314      Co  0.50118213  0.77298323  0.95464014     1.51500
O315        O  0.50195621  0.75567176  0.00164488    -1.40400
C316        C  0.56147666  0.79610028  0.96303678     1.11100
C317        C  0.43997420  0.79650462  0.03812660     1.11200
C318        C  0.56454635  0.79710751  0.03786791     1.11200
C319        C  0.44058998  0.79485263  0.96424931     1.11100
O320        O  0.81291399  0.30217184  0.64274357    -0.78500
O321        O  0.76538778  0.36968486  0.67735997    -0.78500
O322        O  0.84048413  0.35537331  0.68395822    -0.78500
O323        O  0.73509444  0.36013768  0.59303321    -0.78500
O324        O  0.81678438  0.39561008  0.70893154    -0.78600
O325        O  0.75486586  0.32105871  0.62170182    -0.78500
O326        O  0.74031708  0.40115464  0.64332930    -0.78500
O327        O  0.86199329  0.31983523  0.63864594    -0.78500
C328        C  0.84258631  0.29821305  0.64693679     1.11200
C329        C  0.74034179  0.38459215  0.66888493     1.11100
C330        C  0.83325695  0.37013501  0.70979785     1.11200
C331        C  0.73152979  0.33392558  0.60792887     1.11100
O332        O  0.78274616  0.33862288  0.55976379    -0.78500
O333        O  0.85005583  0.41280542  0.65631446    -0.78600
O334        O  0.86424589  0.36715056  0.59091744    -0.78500
O335        O  0.79245144  0.43561878  0.60999702    -0.78500
O336        O  0.78921660  0.43285644  0.66169701    -0.78500
O337        O  0.84134996  0.32033764  0.58198491    -0.78500
O338        O  0.78840464  0.39121188  0.56109490    -0.78400
O339        O  0.89029361  0.37834290  0.65100976    -0.78500
Co340      Co  0.79784933  0.32320269  0.60324024     1.51500
Co341      Co  0.80737678  0.38799990  0.66521478     1.51700
Co342      Co  0.84913085  0.36592597  0.63600291     1.51600
Co343      Co  0.76703216  0.39572040  0.60283914     1.51500
O344        O  0.80278176  0.36759362  0.62214775    -1.40400
C345        C  0.78703699  0.36531655  0.54563253     1.11100
C346        C  0.88005552  0.40565167  0.65942284     1.11200
C347        C  0.86361739  0.34039366  0.57638225     1.11200
C348        C  0.79162646  0.44960214  0.63662506     1.11100
O349        O  0.58704568  0.31642436  0.83518414    -0.78500
O350        O  0.66277027  0.43155429  0.78726713    -0.78500
O351        O  0.65675548  0.37240218  0.88537370    -0.78500
O352        O  0.56303436  0.38818467  0.78779755    -0.78500
O353        O  0.65909784  0.41002008  0.84824914    -0.78600
O354        O  0.56335471  0.33600376  0.77860700    -0.78500
O355        O  0.61104935  0.43289494  0.79338172    -0.78500
O356        O  0.59605711  0.36251652  0.85948260    -0.78500
C357        C  0.58147235  0.33582107  0.85801752     1.11200
C358        C  0.63740763  0.44735525  0.79156745     1.11100
C359        C  0.66326846  0.40096381  0.87742951     1.11200
C360        C  0.54857651  0.36171083  0.78523357     1.11100
O361        O  0.62422328  0.32281196  0.74771201    -0.78500
O362        O  0.71095269  0.39783667  0.81204762    -0.78600
O363        O  0.64424002  0.31542160  0.85348005    -0.78500
O364        O  0.64466925  0.40194581  0.73854429    -0.78500
O365        O  0.67960401  0.37021900  0.76238020    -0.78500
O366        O  0.64861754  0.30282355  0.80352548    -0.78500
O367        O  0.59331109  0.36231444  0.73245304    -0.78400
O368        O  0.68982876  0.35420956  0.83356104    -0.78500
Co369      Co  0.60748045  0.32175859  0.79135873     1.51500
Co370      Co  0.66766539  0.38727785  0.80436326     1.51700
Co371      Co  0.64114422  0.36234188  0.84400700     1.51600
Co372      Co  0.60414326  0.39521609  0.76575562     1.51500
O373        O  0.62509660  0.36593299  0.79888544    -1.40400
C374        C  0.60837425  0.33676514  0.72638042     1.11100
C375        C  0.71439358  0.37124857  0.82577417     1.11200
C376        C  0.65136581  0.29532628  0.83220917     1.11200
C377        C  0.67055717  0.38532578  0.73793590     1.11100
O378        O  0.64727120  0.19336644  0.69646831    -0.78500
O379        O  0.67526019  0.24275926  0.62711592    -0.78500
O380        O  0.69176464  0.16934939  0.64264799    -0.78500
O381        O  0.58891309  0.26347493  0.63631763    -0.78500
O382        O  0.71227157  0.19547054  0.60136218    -0.78600
O383        O  0.62017770  0.24850937  0.67582376    -0.78500
O384        O  0.63827630  0.26217364  0.59479351    -0.78500
O385        O  0.64714137  0.14419931  0.67976747    -0.78500
C386        C  0.65410610  0.16440212  0.70089757     1.11200
C387        C  0.66379070  0.26576567  0.61116070     1.11100
C388        C  0.71615841  0.17993875  0.62684657     1.11200
C389        C  0.60462204  0.26982412  0.66145229     1.11100
O390        O  0.56093320  0.21486898  0.66067254    -0.78500
O391        O  0.66366759  0.15490074  0.58736804    -0.78600
O392        O  0.59963925  0.13751938  0.63203568    -0.78500
O393        O  0.61076118  0.20522701  0.56387741    -0.78500
O394        O  0.66202725  0.21537828  0.56622885    -0.78500
O395        O  0.58838359  0.15886631  0.67883271    -0.78500
O396        O  0.56192462  0.20596669  0.60882772    -0.78400
O397        O  0.66142608  0.11596538  0.62341253    -0.78500
Co398      Co  0.60592224  0.20406737  0.67550751     1.51500
Co399      Co  0.66804004  0.19923548  0.61066040     1.51700
Co400      Co  0.64368504  0.15599606  0.63373612     1.51600
Co401      Co  0.60111390  0.23148435  0.60223574     1.51500
O402        O  0.62497029  0.20001377  0.63135039    -1.40400
C403        C  0.54670499  0.20797022  0.63475692     1.11100
C404        C  0.66714436  0.12524061  0.59533276     1.11200
C405        C  0.58429501  0.13686873  0.65821812     1.11200
C406        C  0.63737349  0.20904153  0.54999408     1.11100
O407        O  0.90141263  0.20812579  0.69101625    -0.78500
O408        O  0.82162433  0.12068848  0.74671346    -0.78500
O409        O  0.82357749  0.14162297  0.64138130    -0.78500
O410        O  0.90234685  0.14060833  0.76340770    -0.78500
O411        O  0.80487529  0.14441805  0.68969324    -0.78600
O412        O  0.87175445  0.17544124  0.73845513    -0.78500
O413        O  0.86001403  0.09070861  0.76622652    -0.78500
O414        O  0.86054395  0.18655952  0.66483064    -0.78500
C415        C  0.87610713  0.21134714  0.67479236     1.11200
C416        C  0.83427459  0.10659087  0.76984531     1.11100
C417        C  0.80191992  0.15018367  0.66047138     1.11200
C418        C  0.88624302  0.16670847  0.76341589     1.11100
O419        O  0.93519133  0.15896643  0.71594794    -0.78500
O420        O  0.82197102  0.08377280  0.65963437    -0.78600
O421        O  0.88178911  0.15346193  0.61420718    -0.78500
O422        O  0.89127557  0.05892156  0.71338917    -0.78500
O423        O  0.83824953  0.05890111  0.71734957    -0.78500
O424        O  0.91684343  0.15799135  0.65372305    -0.78500
O425        O  0.93713896  0.10716624  0.71127710    -0.78400
O426        O  0.86961289  0.09276132  0.63808818    -0.78500
Co427      Co  0.89123501  0.16453031  0.69688692     1.51500
Co428      Co  0.82442724  0.10356944  0.70350428     1.51700
Co429      Co  0.86938988  0.13767644  0.65457732     1.51600
Co430      Co  0.89648551  0.10047975  0.73558396     1.51500
O431        O  0.86967059  0.12159013  0.69982288    -1.40400
C432        C  0.95149367  0.13368167  0.71278990     1.11100
C433        C  0.84250806  0.07845414  0.63780925     1.11200
C434        C  0.90946346  0.16137467  0.62388566     1.11200
C435        C  0.86476019  0.04404719  0.71332190     1.11100
O436        O  0.66236567  0.18017614  0.91606652    -0.78500
O437        O  0.71726906  0.06845273  0.83904528    -0.78500
O438        O  0.61720527  0.12573541  0.84094402    -0.78500
O439        O  0.70814563  0.10631066  0.93978097    -0.78500
O440        O  0.65668139  0.09002070  0.83694415    -0.78600
O441        O  0.71742942  0.15828399  0.94287682    -0.78500
O442        O  0.70718210  0.06377450  0.88974387    -0.78500
O443        O  0.63753141  0.13518715  0.90350614    -0.78500
C444        C  0.63845723  0.16141616  0.91911618     1.11200
C445        C  0.71097025  0.05112727  0.86279713     1.11100
C446        C  0.62694069  0.09812610  0.83278536     1.11200
C447        C  0.71004783  0.13173331  0.95575210     1.11100
O448        O  0.75190775  0.17432701  0.88426409    -0.78500
O449        O  0.69872458  0.10638206  0.79058039    -0.78600
O450        O  0.64774385  0.18273635  0.85754166    -0.78500
O451        O  0.76457341  0.09524467  0.86389953    -0.78500
O452        O  0.74546980  0.13007726  0.82933815    -0.78500
O453        O  0.69830116  0.19567912  0.85817181    -0.78500
O454        O  0.76658510  0.13470294  0.91493322    -0.78400
O455        O  0.67100710  0.14606949  0.81227003    -0.78500
Co456      Co  0.70758134  0.17481380  0.89873841     1.51500
Co457      Co  0.70152069  0.11342374  0.83490288     1.51700
Co458      Co  0.65725539  0.13585787  0.85986799     1.51600
Co459      Co  0.73385242  0.10136166  0.90100102     1.51500
O460        O  0.70166960  0.13147923  0.87876527    -1.40400
C461        C  0.77311685  0.16030697  0.90000999     1.11100
C462        C  0.68241698  0.13163842  0.78751642     1.11200
C463        C  0.66968220  0.20300876  0.85283457     1.11200
C464        C  0.76823635  0.11271413  0.83933639     1.11100
O465        O  0.80431235  0.30808431  0.85738867    -0.78500
O466        O  0.87128072  0.26235456  0.82310185    -0.78500
O467        O  0.85697509  0.33986127  0.81743665    -0.78500
O468        O  0.86528131  0.23331007  0.90902676    -0.78500
O469        O  0.89514151  0.31441143  0.79072918    -0.78600
O470        O  0.82432178  0.24945705  0.88014232    -0.78500
O471        O  0.90409550  0.23853182  0.85707398    -0.78500
O472        O  0.82136021  0.35721342  0.86318425    -0.78500
C473        C  0.80030966  0.33770239  0.85372188     1.11200
C474        C  0.88681990  0.23774932  0.83177961     1.11100
C475        C  0.87040423  0.33210335  0.79100200     1.11200
C476        C  0.83879257  0.22769196  0.89527680     1.11100
O477        O  0.84065876  0.27932780  0.93942931    -0.78500
O478        O  0.91325888  0.34831681  0.84266672    -0.78600
O479        O  0.86921652  0.35848049  0.91142330    -0.78500
O480        O  0.93739376  0.29287159  0.88884528    -0.78500
O481        O  0.93391177  0.28779832  0.83736656    -0.78500
O482        O  0.82126305  0.33711226  0.91837063    -0.78500
O483        O  0.89307954  0.28856877  0.93847059    -0.78400
O484        O  0.87894529  0.38774729  0.85336868    -0.78500
Co485      Co  0.82497277  0.29346980  0.89693346     1.51500
Co486      Co  0.88863602  0.30488291  0.83450396     1.51700
Co487      Co  0.86780802  0.34582882  0.86587943     1.51600
Co488      Co  0.89886269  0.26600959  0.89742188     1.51500
O489        O  0.86921871  0.29955121  0.87771499    -1.40400
C490        C  0.86653216  0.28705865  0.95323413     1.11100
C491        C  0.90606950  0.37843894  0.84320191     1.11200
C492        C  0.84186825  0.35873613  0.92490101     1.11200
C493        C  0.95095290  0.29151315  0.86204379     1.11100
O494        O  0.30445591  0.19250340  0.64327387    -0.78500
O495        O  0.37144221  0.23789512  0.67256915    -0.78500
O496        O  0.35434502  0.16206000  0.68277556    -0.78500
O497        O  0.36187983  0.26499185  0.58832651    -0.78500
O498        O  0.39502802  0.18651422  0.70656226    -0.78600
O499        O  0.32305602  0.24896776  0.61972387    -0.78500
O500        O  0.40414226  0.25916540  0.63690625    -0.78500
O501        O  0.31658931  0.14248129  0.63735237    -0.78500
C502        C  0.29630770  0.16382594  0.64443909     1.11200
C503        C  0.38742310  0.26149651  0.66217296     1.11100
C504        C  0.36952329  0.17007996  0.70818832     1.11200
C505        C  0.33636108  0.27071862  0.60396137     1.11100
O506        O  0.33615469  0.21904489  0.55915431    -0.78500
O507        O  0.41055565  0.15053722  0.65530602    -0.78600
O508        O  0.36469613  0.13810239  0.58989115    -0.78500
O509        O  0.43424363  0.20403213  0.60589501    -0.78500
O510        O  0.43249556  0.21014108  0.65750727    -0.78500
O511        O  0.31784623  0.16174751  0.58162768    -0.78500
O512        O  0.38822887  0.20834185  0.55845745    -0.78400
O513        O  0.37486918  0.11143046  0.64949136    -0.78500
Co514      Co  0.32249601  0.20555337  0.60257948     1.51500
Co515      Co  0.38722436  0.19449692  0.66265183     1.51700
Co516      Co  0.36378980  0.15288189  0.63472667     1.51600
Co517      Co  0.39598983  0.23144699  0.59829594     1.51500
O518        O  0.36693673  0.19860661  0.61994152    -1.40400
C519        C  0.36150514  0.21111526  0.54448133     1.11100
C520        C  0.40286962  0.12069098  0.65716940     1.11200
C521        C  0.33762527  0.13908938  0.57581339     1.11200
C522        C  0.44854897  0.20574113  0.63232479     1.11100
O523        O  0.15775796  0.32247827  0.58191445    -0.78500
O524        O  0.21089261  0.43484334  0.65956128    -0.78500
O525        O  0.10942514  0.38136457  0.64992778    -0.78500
O526        O  0.20934748  0.39300959  0.55894242    -0.78500
O527        O  0.14965526  0.41563506  0.65594552    -0.78600
O528        O  0.21568026  0.34040288  0.55832889    -0.78500
O529        O  0.20560118  0.43748366  0.60803427    -0.78500
O530        O  0.13536933  0.36976760  0.58994458    -0.78500
C531        C  0.13555302  0.34265659  0.57606312     1.11200
C532        C  0.20702666  0.45136389  0.63462179     1.11100
C533        C  0.11963473  0.40843562  0.65897941     1.11200
C534        C  0.21069203  0.36676305  0.54391527     1.11100
O535        O  0.24594709  0.32406275  0.61892994    -0.78500
O536        O  0.18441184  0.39868182  0.70764333    -0.78600
O537        O  0.13847664  0.32327424  0.63840386    -0.78500
O538        O  0.25932695  0.40352858  0.64055368    -0.78500
O539        O  0.23479610  0.37198445  0.67495923    -0.78500
O540        O  0.18778333  0.30575649  0.64240865    -0.78500
O541        O  0.26367378  0.36352606  0.58945056    -0.78400
O542        O  0.15917017  0.35911453  0.68323488    -0.78500
Co543      Co  0.20188858  0.32570950  0.60215515     1.51500
Co544      Co  0.19268328  0.39047239  0.66379977     1.51700
Co545      Co  0.15064469  0.36921701  0.63494897     1.51600
Co546      Co  0.23161501  0.39825918  0.60031874     1.51500
O547        O  0.19678220  0.37015122  0.62068108    -1.40400
C548        C  0.26845330  0.33745475  0.60411033     1.11100
C549        C  0.16716214  0.37380761  0.70890796     1.11200
C550        C  0.15814583  0.30200231  0.64699877     1.11200
C551        C  0.25974989  0.38673221  0.66609152     1.11100
O552        O  0.35095450  0.30485671  0.80811535    -0.78500
O553        O  0.32090423  0.37056853  0.76009836    -0.78500
O554        O  0.31073256  0.35850950  0.83378739    -0.78500
O555        O  0.40514792  0.35665584  0.73144318    -0.78500
O556        O  0.28984689  0.40044789  0.80855558    -0.78600
O557        O  0.37346567  0.32006698  0.75117575    -0.78500
O558        O  0.35637014  0.40034065  0.73504311    -0.78500
O559        O  0.35649564  0.32011310  0.85691848    -0.78500
C560        C  0.34992480  0.29853521  0.83711228     1.11200
C561        C  0.32993907  0.38485355  0.73512136     1.11100
C562        C  0.28624784  0.37521593  0.82464021     1.11200
C563        C  0.38890794  0.33116234  0.72820540     1.11100
O564        O  0.43637561  0.33423151  0.77892819    -0.78500
O565        O  0.34119396  0.41379325  0.84484844    -0.78600
O566        O  0.40521357  0.36554098  0.85982971    -0.78500
O567        O  0.39117356  0.43327287  0.78713927    -0.78500
O568        O  0.33909878  0.43263743  0.78305072    -0.78500
O569        O  0.41363697  0.31857188  0.83704738    -0.78500
O570        O  0.43722576  0.38678485  0.78471286    -0.78400
O571        O  0.34443278  0.37861243  0.88433807    -0.78500
Co572      Co  0.39208590  0.32178197  0.79367942     1.51500
Co573      Co  0.33299913  0.38905998  0.80178962     1.51700
Co574      Co  0.35984972  0.36607074  0.84385919     1.51600
Co575      Co  0.39643868  0.39315058  0.76241054     1.51500
O576        O  0.37545774  0.36689095  0.79828673    -1.40400
C577        C  0.45142158  0.36016772  0.78405042     1.11100
C578        C  0.33703699  0.40632560  0.87450857     1.11200
C579        C  0.41943767  0.33844332  0.85931451     1.11200
C580        C  0.36487312  0.44812234  0.78614545     1.11100
O581        O  0.17727608  0.34096989  0.91897761    -0.78500
O582        O  0.06701902  0.29109792  0.83690732    -0.78500
O583        O  0.12029995  0.39141807  0.85293603    -0.78500
O584        O  0.10781859  0.28925077  0.93826492    -0.78500
O585        O  0.08623367  0.35154614  0.84403787    -0.78600
O586        O  0.16054995  0.28207859  0.93923956    -0.78500
O587        O  0.06364664  0.29445091  0.88856386    -0.78500
O588        O  0.12901990  0.36148605  0.91082301    -0.78500
C589        C  0.15587839  0.36193484  0.92514794     1.11200
C590        C  0.04999431  0.29343881  0.86177275     1.11100
C591        C  0.09298987  0.38164858  0.84384641     1.11200
C592        C  0.13414038  0.28726482  0.95334304     1.11100
O593        O  0.17840677  0.25441259  0.87898374    -0.78500
O594        O  0.10478500  0.32007037  0.79080071    -0.78600
O595        O  0.17852971  0.36238818  0.86408960    -0.78500
O596        O  0.09835922  0.24237604  0.85518124    -0.78500
O597        O  0.13040481  0.26793726  0.82178188    -0.78500
O598        O  0.19643925  0.31370036  0.85781567    -0.78500
O599        O  0.13765119  0.23600744  0.90667136    -0.78400
O600        O  0.14393371  0.34398033  0.81721476    -0.78500
Co601      Co  0.17579506  0.29781127  0.89688200     1.51500
Co602      Co  0.11182339  0.30939214  0.83437958     1.51700
Co603      Co  0.13228923  0.34957700  0.86541252     1.51600
Co604      Co  0.10295853  0.26832450  0.89626230     1.51500
O605        O  0.13159908  0.30314911  0.87738863    -1.40400
C606        C  0.16449107  0.23168370  0.89303427     1.11100
C607        C  0.12987532  0.33717037  0.79086536     1.11200
C608        C  0.20008074  0.34338252  0.85462370     1.11200
C609        C  0.11554969  0.24283010  0.82991442     1.11100
O610        O  0.19488366  0.15102869  0.68911986    -0.78500
O611        O  0.12914252  0.18160478  0.73558861    -0.78500
O612        O  0.14207753  0.19132404  0.66472669    -0.78500
O613        O  0.14417910  0.09801917  0.76654756    -0.78500
O614        O  0.09825347  0.21151593  0.68714619    -0.78600
O615        O  0.18095385  0.12850339  0.74552230    -0.78500
O616        O  0.10014086  0.14680907  0.76221225    -0.78500
O617        O  0.18036847  0.14610895  0.64018052    -0.78500
C618        C  0.20180728  0.15235474  0.66034916     1.11200
C619        C  0.11567858  0.17304551  0.76109422     1.11100
C620        C  0.12479353  0.21549127  0.67322510     1.11200
C621        C  0.17017984  0.11376810  0.76902865     1.11100
O622        O  0.16565124  0.06576810  0.71799565    -0.78500
O623        O  0.08519844  0.15924314  0.65206486    -0.78600
O624        O  0.13404319  0.09827633  0.63625093    -0.78500
O625        O  0.06591355  0.11072739  0.71186008    -0.78500
O626        O  0.06587063  0.16262539  0.71400730    -0.78500
O627        O  0.18087640  0.08867037  0.65924649    -0.78500
O628        O  0.11258516  0.06515736  0.71454910    -0.78400
O629        O  0.12137660  0.15919599  0.61326663    -0.78500
Co630      Co  0.17810524  0.10990275  0.70306090     1.51500
Co631      Co  0.10979348  0.16850616  0.69465739     1.51700
Co632      Co  0.13409512  0.14298842  0.65339930     1.51600
Co633      Co  0.10690122  0.10631457  0.73586546     1.51500
O634        O  0.13266284  0.12641898  0.69886417    -1.40400
C635        C  0.13926100  0.05091964  0.71426211     1.11100
C636        C  0.09289448  0.16433537  0.62265646     1.11200
C637        C  0.16103391  0.08371310  0.63657550     1.11200
C638        C  0.05052895  0.13663418  0.71228334     1.11100
O639        O  0.30997088  0.19769557  0.85984542    -0.78500
O640        O  0.26481237  0.13177500  0.82595461    -0.78500
O641        O  0.34039298  0.14964063  0.81689965    -0.78500
O642        O  0.23692001  0.13806992  0.91097412    -0.78500
O643        O  0.31681334  0.10948510  0.79170234    -0.78600
O644        O  0.25393595  0.17827350  0.88225080    -0.78500
O645        O  0.24297199  0.09825249  0.86035660    -0.78500
O646        O  0.36034316  0.18499859  0.86397135    -0.78500
C647        C  0.33883073  0.20538215  0.85767509     1.11200
C648        C  0.24090613  0.11556567  0.83546615     1.11100
C649        C  0.33321665  0.13497462  0.79097725     1.11200
C650        C  0.23162713  0.16423083  0.89644678     1.11100
O651        O  0.28393401  0.16124465  0.94262058    -0.78500
O652        O  0.35290690  0.09224441  0.84215863    -0.78600
O653        O  0.36525943  0.13469158  0.90901926    -0.78500
O654        O  0.29838622  0.06726138  0.89086761    -0.78500
O655        O  0.29265530  0.07045791  0.83932289    -0.78500
O656        O  0.34142807  0.18064419  0.92006990    -0.78500
O657        O  0.29355148  0.10941110  0.93999869    -0.78400
O658        O  0.39169268  0.12801650  0.84874436    -0.78500
Co659      Co  0.29735283  0.17730297  0.89952691     1.51500
Co660      Co  0.30848013  0.11564846  0.83577863     1.51700
Co661      Co  0.34999854  0.13796065  0.86443175     1.51600
Co662      Co  0.27064013  0.10450784  0.89961407     1.51500
O663        O  0.30404869  0.13414839  0.87945394    -1.40400
C664        C  0.29110573  0.13485518  0.95578392     1.11100
C665        C  0.38274933  0.10046719  0.83975110     1.11200
C666        C  0.36433550  0.16082938  0.92441202     1.11200
C667        C  0.29674743  0.05381861  0.86416651     1.11100
O668        O  0.58262665  0.83880882  0.68089392    -0.78500
O669        O  0.65849381  0.78684777  0.56645242    -0.78500
O670        O  0.65186565  0.88685825  0.62300321    -0.78500
O671        O  0.55933807  0.78767797  0.61357938    -0.78500
O672        O  0.65746850  0.84734528  0.58809434    -0.78600
O673        O  0.56085689  0.78003652  0.66557620    -0.78500
O674        O  0.60584831  0.78938010  0.56540738    -0.78500
O675        O  0.59116648  0.86174880  0.63421977    -0.78500
C676        C  0.57690709  0.86130936  0.66109591     1.11200
C677        C  0.63250340  0.78888500  0.55059341     1.11100
C678        C  0.65989572  0.87730577  0.59549781     1.11200
C679        C  0.54546511  0.78609911  0.64020564     1.11100
O680        O  0.62427567  0.75319476  0.67930452    -0.78500
O681        O  0.70895517  0.81141749  0.60430294    -0.78600
O682        O  0.63898726  0.85897533  0.68140596    -0.78500
O683        O  0.63836635  0.73722572  0.59739909    -0.78500
O684        O  0.67525367  0.75958081  0.62764041    -0.78500
O685        O  0.64574614  0.80984440  0.69520193    -0.78500
O686        O  0.59213635  0.73305373  0.64345143    -0.78400
O687        O  0.68450357  0.83595559  0.64449134    -0.78500
Co688      Co  0.60487693  0.79535396  0.67780010     1.51500
Co689      Co  0.66455282  0.80322832  0.61155757     1.51700
Co690      Co  0.63638652  0.84605265  0.63508153     1.51600
Co691      Co  0.59981579  0.76476707  0.60626239     1.51500
O692        O  0.62154598  0.80012917  0.63280952    -1.40400
C693        C  0.60867462  0.73001487  0.66898075     1.11100
C694        C  0.71024658  0.82802579  0.62957218     1.11200
C695        C  0.64604723  0.83868449  0.70252118     1.11200
C696        C  0.66452988  0.73544214  0.61271290     1.11100
O697        O  0.83938545  0.67612831  0.57891122    -0.78500
O698        O  0.78937620  0.56571678  0.66102793    -0.78500
O699        O  0.88916952  0.62200214  0.65017411    -0.78500
O700        O  0.78702229  0.60695392  0.55996650    -0.78500
O701        O  0.84928072  0.58732154  0.65690655    -0.78600
O702        O  0.77982659  0.65919965  0.55867466    -0.78500
O703        O  0.79141981  0.56240426  0.60902013    -0.78500
O704        O  0.86290050  0.63003523  0.59007123    -0.78500
C705        C  0.86223840  0.65625400  0.57454312     1.11200
C706        C  0.79142488  0.54880043  0.63597108     1.11100
C707        C  0.87932198  0.59469394  0.65897527     1.11200
C708        C  0.78535092  0.63289106  0.54464419     1.11100
O709        O  0.75407402  0.67663730  0.62105942    -0.78500
O710        O  0.81518908  0.60568716  0.70864164    -0.78600
O711        O  0.86060910  0.67962691  0.63478022    -0.78500
O712        O  0.73906008  0.59537677  0.64149476    -0.78500
O713        O  0.76228232  0.62789073  0.67567386    -0.78500
O714        O  0.81114172  0.69421474  0.64039150    -0.78500
O715        O  0.73314384  0.63816434  0.59265012    -0.78400
O716        O  0.83895322  0.64529543  0.68274504    -0.78500
Co717      Co  0.79605832  0.67411589  0.60133891     1.51500
Co718      Co  0.80569584  0.61127693  0.66449323     1.51700
Co719      Co  0.84783830  0.63327012  0.63500431     1.51600
Co720      Co  0.76560502  0.60208215  0.60160716     1.51500
O721        O  0.80135801  0.63022393  0.62082579    -1.40400
C722        C  0.73030688  0.66451637  0.60770798     1.11100
C723        C  0.83164443  0.63122233  0.70905590     1.11200
C724        C  0.84028279  0.70104900  0.64108116     1.11200
C725        C  0.73792798  0.61195911  0.66680925     1.11100
O726        O  0.67974541  0.58040013  0.84236361    -0.78500
O727        O  0.56584959  0.65871115  0.79222443    -0.78500
O728        O  0.62141365  0.64926587  0.89199649    -0.78500
O729        O  0.61140679  0.55895527  0.79145828    -0.78500
O730        O  0.58708112  0.65645335  0.85215866    -0.78600
O731        O  0.66386856  0.55968077  0.78376157    -0.78500
O732        O  0.56403283  0.60632874  0.79443450    -0.78500
O733        O  0.63285571  0.58880093  0.86579903    -0.78500
C734        C  0.65989964  0.57434006  0.86465930     1.11200
C735        C  0.54957777  0.63308787  0.79419224     1.11100
C736        C  0.59441197  0.65918988  0.88195994     1.11200
C737        C  0.63803104  0.54461757  0.78958656     1.11100
O738        O  0.67896552  0.62298020  0.75791708    -0.78500
O739        O  0.60437611  0.70794356  0.81760556    -0.78600
O740        O  0.68034747  0.63613640  0.86410689    -0.78500
O741        O  0.59636162  0.63913155  0.74267402    -0.78500
O742        O  0.62758830  0.67501014  0.76532596    -0.78500
O743        O  0.69506585  0.64321305  0.81528855    -0.78500
O744        O  0.64180228  0.59222377  0.73763429    -0.78400
O745        O  0.64401916  0.68249726  0.84246719    -0.78500
Co746      Co  0.67694024  0.60316591  0.79974966     1.51500
Co747      Co  0.61127863  0.66384377  0.80865046     1.51700
Co748      Co  0.63377996  0.63425499  0.85112844     1.51600
Co749      Co  0.60470826  0.59998455  0.76949090     1.51500
O750        O  0.63186932  0.62059271  0.80495483    -1.40400
C751        C  0.66775589  0.60830781  0.73458230     1.11100
C752        C  0.62947825  0.70856511  0.83481267     1.11200
C753        C  0.70181199  0.64345542  0.84422396     1.11200
C754        C  0.61217962  0.66500569  0.74117231     1.11100
O755        O  0.92076394  0.81611380  0.66047108    -0.78500
O756        O  0.84103791  0.92894043  0.71009588    -0.78500
O757        O  0.85213951  0.87411021  0.61049509    -0.78500
O758        O  0.94122921  0.88489747  0.71090223    -0.78500
O759        O  0.84403454  0.90801363  0.65041011    -0.78600
O760        O  0.94134583  0.83277670  0.71926350    -0.78500
O761        O  0.89356541  0.93103651  0.70715932    -0.78500
O762        O  0.91228109  0.86293563  0.63739737    -0.78500
C763        C  0.92647584  0.83590943  0.63809095     1.11200
C764        C  0.86669837  0.94526610  0.70811763     1.11100
C765        C  0.84261520  0.90116867  0.62043661     1.11200
C766        C  0.95602365  0.85875376  0.71346998     1.11100
O767        O  0.87789302  0.81739501  0.74478733    -0.78500
O768        O  0.79207326  0.89020073  0.68457253    -0.78600
O769        O  0.86474699  0.81547199  0.63874254    -0.78500
O770        O  0.86080178  0.89929446  0.75921845    -0.78500
O771        O  0.82529166  0.86736049  0.73686762    -0.78500
O772        O  0.85794609  0.80038194  0.68757715    -0.78500
O773        O  0.90814721  0.85512657  0.76484775    -0.78400
O774        O  0.81827399  0.85127085  0.65964054    -0.78500
Co775      Co  0.89792954  0.81905890  0.70312101     1.51500
Co776      Co  0.83641447  0.88371172  0.69369139     1.51700
Co777      Co  0.86661364  0.86177829  0.65153138     1.51600
Co778      Co  0.90019054  0.89128027  0.73265686     1.51500
O779        O  0.87990981  0.86363550  0.69764779    -1.40400
C780        C  0.89169576  0.82959409  0.76817310     1.11100
C781        C  0.79191051  0.86527006  0.66734063     1.11200
C782        C  0.85738976  0.79401210  0.65855388     1.11200
C783        C  0.83509015  0.88315498  0.76078977     1.11100
O784        O  0.82121450  0.65914372  0.92180415    -0.78500
O785        O  0.93217514  0.71137266  0.84075158    -0.78500
O786        O  0.87586839  0.61149941  0.84936287    -0.78500
O787        O  0.89080738  0.71095936  0.94151518    -0.78500
O788        O  0.91075490  0.65140168  0.84414774    -0.78600
O789        O  0.83827726  0.71792124  0.94337551    -0.78500
O790        O  0.93585021  0.70839862  0.89266250    -0.78500
O791        O  0.86754584  0.63613829  0.90998853    -0.78500
C792        C  0.84122977  0.63635001  0.92554092     1.11200
C793        C  0.94942860  0.70926941  0.86565340     1.11100
C794        C  0.90340169  0.62158692  0.84120579     1.11200
C795        C  0.86497209  0.71243637  0.95708402     1.11100
O796        O  0.82021516  0.74462827  0.88123634    -0.78500
O797        O  0.89238019  0.68607798  0.79287876    -0.78600
O798        O  0.81760199  0.63912855  0.86539436    -0.78500
O799        O  0.90185976  0.76043803  0.86152693    -0.78500
O800        O  0.86931177  0.73777554  0.82688378    -0.78500
O801        O  0.80278894  0.68838887  0.86097757    -0.78500
O802        O  0.85873596  0.76518423  0.91001494    -0.78400
O803        O  0.85229413  0.66200985  0.81786301    -0.78500
Co804      Co  0.82307565  0.70264411  0.90030999     1.51500
Co805      Co  0.88647104  0.69466535  0.83715139     1.51700
Co806      Co  0.86420795  0.65212451  0.86541973     1.51600
Co807      Co  0.89539500  0.73330098  0.90060356     1.51500
O808        O  0.86723917  0.69798897  0.88072253    -1.40400
C809        C  0.83239458  0.76816883  0.89467325     1.11100
C810        C  0.86701117  0.66930396  0.79188262     1.11200
C811        C  0.79590711  0.65942296  0.85986559     1.11200
C812        C  0.88518278  0.76186402  0.83628683     1.11100
O813        O  0.66072373  0.91721734  0.81662599    -0.78500
O814        O  0.71079829  0.84187470  0.93218419    -0.78500
O815        O  0.61015906  0.85152551  0.87637684    -0.78500
O816        O  0.71108291  0.94020045  0.88489388    -0.78500
O817        O  0.65050566  0.84570677  0.91080597    -0.78600
O818        O  0.71940016  0.93851850  0.83301113    -0.78500
O819        O  0.70837986  0.89419635  0.93294926    -0.78500
O820        O  0.63740002  0.91060351  0.86340182    -0.78500
C821        C  0.63845812  0.92414494  0.83624068     1.11200
C822        C  0.70936748  0.86778676  0.94781167     1.11100
C823        C  0.62028759  0.84419117  0.90395120     1.11200
C824        C  0.71324122  0.95404508  0.85832371     1.11100
O825        O  0.74551184  0.87429079  0.82045451    -0.78500
O826        O  0.68421422  0.79234182  0.89584435    -0.78600
O827        O  0.63888391  0.86164368  0.81732855    -0.78500
O828        O  0.76054866  0.86082443  0.90164619    -0.78500
O829        O  0.73757340  0.82384895  0.87193445    -0.78500
O830        O  0.68833973  0.85382525  0.80394998    -0.78500
O831        O  0.76569728  0.90666584  0.85593247    -0.78400
O832        O  0.65959804  0.81643408  0.85552981    -0.78500
Co833      Co  0.70364686  0.89448735  0.82085486     1.51500
Co834      Co  0.69397910  0.83607273  0.88743629     1.51700
Co835      Co  0.65153717  0.86506482  0.86368119     1.51600
Co836      Co  0.73350453  0.89966910  0.89255920     1.51500
O837        O  0.69814459  0.87837841  0.86577807    -1.40400
C838        C  0.76891619  0.88939292  0.83108622     1.11100
C839        C  0.66700994  0.79088773  0.87093407     1.11200
C840        C  0.65931481  0.85366344  0.79657435     1.11200
C841        C  0.76188586  0.83437577  0.88698492     1.11100
O842        O  0.32048902  0.83919184  0.58340486    -0.78500
O843        O  0.43136598  0.78533445  0.66298477    -0.78500
O844        O  0.37510670  0.88577889  0.65780208    -0.78500
O845        O  0.39331581  0.78632642  0.56197425    -0.78500
O846        O  0.41198143  0.84743166  0.65910943    -0.78600
O847        O  0.34041086  0.78175805  0.55880893    -0.78500
O848        O  0.43499407  0.79112270  0.61188164    -0.78500
O849        O  0.36580458  0.86346125  0.59635481    -0.78500
C850        C  0.33958857  0.86287608  0.58056000     1.11200
C851        C  0.44828783  0.78924184  0.63855961     1.11100
C852        C  0.40361836  0.87687120  0.66392446     1.11200
C853        C  0.36776267  0.78561037  0.54567380     1.11100
O854        O  0.32211293  0.75080336  0.61901571    -0.78500
O855        O  0.39746589  0.81046464  0.70942026    -0.78600
O856        O  0.31738116  0.85604403  0.64175743    -0.78500
O857        O  0.40069221  0.73727755  0.64465568    -0.78500
O858        O  0.36816120  0.76239437  0.67744431    -0.78500
O859        O  0.30366096  0.80604821  0.64262512    -0.78500
O860        O  0.36273095  0.73262515  0.59162522    -0.78400
O861        O  0.35445876  0.83350835  0.68855885    -0.78500
Co862      Co  0.32408293  0.79446630  0.60253700     1.51500
Co863      Co  0.38742828  0.80402540  0.66621315     1.51700
Co864      Co  0.36426191  0.84527625  0.64048765     1.51600
Co865      Co  0.39662033  0.76475354  0.60372762     1.51500
O866        O  0.36769177  0.80002872  0.62280163    -1.40400
C867        C  0.33629485  0.72810827  0.60570883     1.11100
C868        C  0.37132560  0.82505601  0.71301412     1.11200
C869        C  0.29644833  0.83476162  0.64619474     1.11200
C870        C  0.38357274  0.73750205  0.67005093     1.11100
O871        O  0.30366550  0.64345474  0.81500883    -0.78500
O872        O  0.36998498  0.67821837  0.76774474    -0.78500
O873        O  0.35516798  0.68330917  0.84274145    -0.78500
O874        O  0.35789567  0.59475593  0.73617634    -0.78500
O875        O  0.39565711  0.70885371  0.81954211    -0.78600
O876        O  0.32001464  0.62403546  0.75716655    -0.78500
O877        O  0.40086794  0.64421456  0.74208453    -0.78500
O878        O  0.31899047  0.63683565  0.86385080    -0.78500
C879        C  0.29723184  0.64379985  0.84405980     1.11200
C880        C  0.38440388  0.66996909  0.74249399     1.11100
C881        C  0.36998164  0.70937034  0.83582789     1.11200
C882        C  0.33142097  0.60984702  0.73359356     1.11100
O883        O  0.33662825  0.56062215  0.78246228    -0.78500
O884        O  0.41318675  0.65636310  0.85243649    -0.78600
O885        O  0.36656161  0.58959705  0.86542271    -0.78500
O886        O  0.43506149  0.60860631  0.79264682    -0.78500
O887        O  0.43344639  0.66080278  0.79182361    -0.78500
O888        O  0.32003318  0.58088233  0.84139040    -0.78500
O889        O  0.38944052  0.56088907  0.78802633    -0.78400
O890        O  0.37862375  0.65009609  0.89201651    -0.78500
Co891      Co  0.32266315  0.60387596  0.79896629     1.51500
Co892      Co  0.38826106  0.66514311  0.80962684     1.51700
Co893      Co  0.36565158  0.63516678  0.85099042     1.51600
Co894      Co  0.39455992  0.60309939  0.76774532     1.51500
O895        O  0.36753081  0.62187240  0.80452180    -1.40400
C896        C  0.36312224  0.54594193  0.78655693     1.11100
C897        C  0.40589767  0.65955616  0.88221353     1.11200
C898        C  0.33960567  0.57508060  0.86397951     1.11200
C899        C  0.44966079  0.63505940  0.79321903     1.11100
O900        O  0.18872961  0.69508554  0.64643750    -0.78500
O901        O  0.23670532  0.62685735  0.67722425    -0.78500
O902        O  0.15924038  0.64257344  0.68579738    -0.78500
O903        O  0.26363295  0.63646258  0.59315199    -0.78500
O904        O  0.18487858  0.60338517  0.71080861    -0.78600
O905        O  0.24699540  0.67583647  0.62366098    -0.78500
O906        O  0.25842048  0.59447076  0.64172429    -0.78500
O907        O  0.13931055  0.67890653  0.64049885    -0.78500
C908        C  0.15909607  0.69974025  0.64979171     1.11200
C909        C  0.26062891  0.61104827  0.66711038     1.11100
C910        C  0.16767102  0.62843414  0.71167683     1.11200
C911        C  0.26910313  0.66198625  0.60856481     1.11100
O912        O  0.21778762  0.66198439  0.56291022    -0.78500
O913        O  0.14955751  0.58686704  0.65929918    -0.78600
O914        O  0.13763049  0.63155174  0.59231432    -0.78500
O915        O  0.20325546  0.56416558  0.60995116    -0.78500
O916        O  0.20934912  0.56551564  0.66159536    -0.78500
O917        O  0.15953130  0.67918937  0.58497788    -0.78500
O918        O  0.20793896  0.61002434  0.56209896    -0.78400
O919        O  0.10958325  0.62126728  0.65126044    -0.78500
Co920      Co  0.20327675  0.67570115  0.60627243     1.51500
Co921      Co  0.19330442  0.61074414  0.66683584     1.51700
Co922      Co  0.15131313  0.63270112  0.63748928     1.51600
Co923      Co  0.23055841  0.60241077  0.60265664     1.51500
O924        O  0.19738148  0.63119296  0.62407205    -1.40400
C925        C  0.21110543  0.63654052  0.54792357     1.11100
C926        C  0.11942060  0.59406768  0.66041566     1.11200
C927        C  0.13793703  0.65856953  0.57837455     1.11200
C928        C  0.20523664  0.54963585  0.63622660     1.11100
O929        O  0.18161780  0.91462509  0.65993898    -0.78500
O930        O  0.06995289  0.83888046  0.71641163    -0.78500
O931        O  0.12278408  0.84290784  0.61457922    -0.78500
O932        O  0.11126671  0.93913137  0.71163180    -0.78500
O933        O  0.08743827  0.84070072  0.65405818    -0.78600
O934        O  0.16432279  0.93951823  0.71698081    -0.78500
O935        O  0.06681736  0.89019153  0.70934476    -0.78500
O936        O  0.13484028  0.90443136  0.63700022    -0.78500
C937        C  0.16171969  0.91918722  0.63721988     1.11200
C938        C  0.05326215  0.86351774  0.71208353     1.11100
C939        C  0.09480784  0.83600435  0.62445698     1.11200
C940        C  0.13780747  0.95389968  0.71248186     1.11100
O941        O  0.18003510  0.87962127  0.74849393    -0.78500
O942        O  0.10254232  0.79089123  0.69174458    -0.78600
O943        O  0.18180424  0.85681148  0.64291033    -0.78500
O944        O  0.10158658  0.85818155  0.76286612    -0.78500
O945        O  0.13318103  0.82395243  0.73820152    -0.78500
O946        O  0.19641759  0.85414690  0.69242214    -0.78500
O947        O  0.14096257  0.91010649  0.76548021    -0.78400
O948        O  0.14417998  0.81145857  0.66600889    -0.78500
Co949      Co  0.17832202  0.89536158  0.70448972     1.51500
Co950      Co  0.11321263  0.83425979  0.69691593     1.51700
Co951      Co  0.13524263  0.85992344  0.65460437     1.51600
Co952      Co  0.10619358  0.89822039  0.73446196     1.51500
O953        O  0.13379225  0.87732898  0.69958425    -1.40400
C954        C  0.16683334  0.89515508  0.77043357     1.11100
C955        C  0.12795540  0.78712733  0.67600173     1.11200
C956        C  0.20299086  0.85105971  0.66360703     1.11200
C957        C  0.11839193  0.83245549  0.76301302     1.11100
O958        O  0.19682761  0.68982886  0.86241427    -0.78500
O959        O  0.13084337  0.73600478  0.82366224    -0.78500
O960        O  0.14717140  0.66270727  0.81911620    -0.78500
O961        O  0.14041154  0.76913184  0.90739414    -0.78500
O962        O  0.10575577  0.68337292  0.79325700    -0.78600
O963        O  0.17994417  0.74702129  0.88135440    -0.78500
O964        O  0.09941775  0.76262548  0.85644893    -0.78500
O965        O  0.18139193  0.64066444  0.86689231    -0.78500
C966        C  0.20333907  0.66072151  0.86139269     1.11200
C967        C  0.11655399  0.76160944  0.83131476     1.11100
C968        C  0.13183415  0.66767556  0.79302797     1.11200
C969        C  0.16764590  0.77124309  0.89360241     1.11100
O970        O  0.15918540  0.72123138  0.94321872    -0.78500
O971        O  0.08726082  0.65200541  0.84629217    -0.78600
O972        O  0.13088981  0.63837197  0.91109166    -0.78500
O973        O  0.06326886  0.71260574  0.89087555    -0.78500
O974        O  0.06668789  0.71254106  0.83908250    -0.78500
O975        O  0.17687061  0.66176907  0.92311322    -0.78500
O976        O  0.10641700  0.71700636  0.93993839    -0.78400
O977        O  0.12267882  0.61266483  0.85065138    -0.78500
Co978      Co  0.17556344  0.70503444  0.90092271     1.51500
Co979      Co  0.11206456  0.69443371  0.83687818     1.51700
Co980      Co  0.13466919  0.65368642  0.86632962     1.51600
Co981      Co  0.10379724  0.73735628  0.89775082     1.51500
O982        O  0.13165677  0.70021185  0.88041810    -1.40400
C983        C  0.13190937  0.71683777  0.95615091     1.11100
C984        C  0.09490088  0.62231531  0.84258623     1.11200
C985        C  0.15713143  0.63876616  0.92675881     1.11200
C986        C  0.04954519  0.71156821  0.86409416     1.11100
O987        O  0.31257687  0.85716668  0.80487806    -0.78500
O988        O  0.26247893  0.82730134  0.87170948    -0.78500
O989        O  0.34201978  0.81729567  0.85807574    -0.78500
O990        O  0.23891565  0.91294073  0.86221180    -0.78500
O991        O  0.31357263  0.79236298  0.89529368    -0.78600
O992        O  0.25556274  0.88146270  0.82382466    -0.78500
O993        O  0.24165139  0.86359743  0.90385618    -0.78500
O994        O  0.36217264  0.86137685  0.82116444    -0.78500
C995        C  0.34204921  0.85257661  0.80040803     1.11200
C996        C  0.23886274  0.83785096  0.88781385     1.11100
C997        C  0.33233388  0.79141621  0.87154763     1.11200
C998        C  0.23355765  0.89706417  0.83706411     1.11100
O999        O  0.28636014  0.94211972  0.83802779    -0.78500
O1000       O  0.35014391  0.84317108  0.91248685    -0.78600
O1001       O  0.36534998  0.91127413  0.86711404    -0.78500
O1002       O  0.29738277  0.89292986  0.93518607    -0.78500
O1003       O  0.28988395  0.84128857  0.93216714    -0.78500
O1004       O  0.34371570  0.91808169  0.81965346    -0.78500
O1005       O  0.29522044  0.94195343  0.88999363    -0.78400
O1006       O  0.39138651  0.85182095  0.87965261    -0.78500
Co1007     Co  0.29938290  0.89802506  0.82392657     1.51500
Co1008     Co  0.30645427  0.83659989  0.88780763     1.51700
Co1009     Co  0.35026318  0.86598713  0.86717096     1.51600
Co1010     Co  0.27107024  0.90193638  0.89666580     1.51500
O1011       O  0.30422011  0.87988953  0.86816749    -1.40400
C1012       C  0.29328584  0.95663347  0.86369031     1.11100
C1013       C  0.38061308  0.84298735  0.90651179     1.11200
C1014       C  0.36560031  0.92461501  0.83985497     1.11200
C1015       C  0.29464118  0.86604591  0.94866524     1.11100
O1016       O  0.19305355  0.59821905  0.29128261    -0.78500
O1017       O  0.24733277  0.67873075  0.37459272    -0.78500
O1018       O  0.14134628  0.67761250  0.35539591    -0.78500
O1019       O  0.26414383  0.59759344  0.35970976    -0.78500
O1020       O  0.18999536  0.69579980  0.35129499    -0.78600
O1021       O  0.24076986  0.62795222  0.32368100    -0.78500
O1022       O  0.26649373  0.64192352  0.40660091    -0.78500
O1023       O  0.16679996  0.64012862  0.31108457    -0.78500
C1024       C  0.17819665  0.62416737  0.28723977     1.11200
C1025       C  0.27031617  0.66698737  0.38981945     1.11100
C1026       C  0.16036438  0.69934350  0.34712708     1.11200
C1027       C  0.26525889  0.61298257  0.33360275     1.11100
O1028       O  0.21658608  0.56672146  0.34038087    -0.78500
O1029       O  0.16011109  0.68031525  0.41244203    -0.78600
O1030       O  0.11445222  0.62056122  0.34423121    -0.78500
O1031       O  0.21164518  0.61219088  0.43752042    -0.78500
O1032       O  0.21830800  0.66462979  0.43640413    -0.78500
O1033       O  0.15413641  0.58512617  0.34094459    -0.78500
O1034       O  0.21031370  0.56529277  0.39174695    -0.78400
O1035       O  0.13834399  0.63275038  0.40423707    -0.78500
Co1036     Co  0.19801327  0.60991173  0.33403007     1.51500
Co1037     Co  0.20414446  0.67738001  0.39217022     1.51700
Co1038     Co  0.15514772  0.63239098  0.35961375     1.51600
Co1039     Co  0.23534075  0.60539943  0.39794638     1.51500
O1040       O  0.20035359  0.63211456  0.37583565    -1.40400
C1041       C  0.21214362  0.55097219  0.36541663     1.11100
C1042       C  0.13827316  0.65981493  0.41826027     1.11200
C1043       C  0.12396888  0.59249640  0.33836288     1.11200
C1044       C  0.21276815  0.63879814  0.45146790     1.11100
O1045       O  0.32034150  0.58368855  0.15419530    -0.78500
O1046       O  0.43504895  0.65649479  0.21136066    -0.78500
O1047       O  0.38362391  0.65218056  0.10925030    -0.78500
O1048       O  0.38881536  0.55870061  0.20695473    -0.78500
O1049       O  0.41694905  0.65631066  0.15036523    -0.78600
O1050       O  0.33599632  0.55950369  0.21234494    -0.78500
O1051       O  0.43590800  0.60472652  0.20572446    -0.78500
O1052       O  0.36800962  0.59137504  0.13214047    -0.78500
C1053       C  0.34041066  0.57772938  0.13212916     1.11200
C1054       C  0.45074582  0.63097887  0.20744337     1.11100
C1055       C  0.41066827  0.66032323  0.12048587     1.11200
C1056       C  0.36226047  0.54436073  0.20796711     1.11100
O1057       O  0.32070059  0.62203057  0.24056658    -0.78500
O1058       O  0.40215263  0.70653365  0.18771616    -0.78600
O1059       O  0.32448872  0.64152259  0.13489018    -0.78500
O1060       O  0.40290988  0.63736374  0.25824849    -0.78500
O1061       O  0.37251616  0.67360830  0.23516431    -0.78500
O1062       O  0.30495115  0.64514202  0.18284523    -0.78500
O1063       O  0.35772661  0.59059238  0.26054674    -0.78400
O1064       O  0.36200859  0.68571162  0.15963504    -0.78500
Co1065     Co  0.32320687  0.60413303  0.19772457     1.51500
Co1066     Co  0.39112959  0.66320345  0.19296959     1.51700
Co1067     Co  0.36968010  0.63646154  0.14911573     1.51600
Co1068     Co  0.39510245  0.59885537  0.22994815     1.51500
O1069       O  0.36889020  0.62082138  0.19445957    -1.40400
C1070       C  0.33230124  0.60727524  0.26382297     1.11100
C1071       C  0.37734178  0.71019878  0.17082833     1.11200
C1072       C  0.30239025  0.64999490  0.15342526     1.11200
C1073       C  0.38739658  0.66353618  0.25948527     1.11100
O1074       O  0.41324088  0.84153655  0.31896531    -0.78500
O1075       O  0.34512114  0.78339983  0.43322168    -0.78500
O1076       O  0.34450165  0.88538033  0.38038140    -0.78500
O1077       O  0.44096780  0.78948588  0.38299926    -0.78500
O1078       O  0.34257529  0.84549534  0.41509501    -0.78600
O1079       O  0.43787734  0.78307494  0.33096853    -0.78500
O1080       O  0.39718678  0.78928834  0.43211066    -0.78500
O1081       O  0.40538785  0.86219851  0.36691470    -0.78500
C1082       C  0.41934603  0.86263536  0.33994880     1.11200
C1083       C  0.37135816  0.78716074  0.44782949     1.11100
C1084       C  0.33876703  0.87551050  0.40823514     1.11200
C1085       C  0.45409044  0.78776224  0.35613537     1.11100
O1086       O  0.37538497  0.75459992  0.31802816    -0.78500
O1087       O  0.29307875  0.80613334  0.40209283    -0.78600
O1088       O  0.35565418  0.86025052  0.32207887    -0.78500
O1089       O  0.36438296  0.73651417  0.40057856    -0.78500
O1090       O  0.32652771  0.75934279  0.37192510    -0.78500
O1091       O  0.35115942  0.81210871  0.30375287    -0.78500
O1092       O  0.40873780  0.73478589  0.35336642    -0.78400
O1093       O  0.31203062  0.83297481  0.36025937    -0.78500
Co1094     Co  0.39291243  0.79767501  0.32054814     1.51500
Co1095     Co  0.33633365  0.80188075  0.39008323     1.51700
Co1096     Co  0.36065858  0.84527554  0.36715781     1.51600
Co1097     Co  0.40177684  0.76537911  0.39114320     1.51500
O1098       O  0.37783312  0.80047753  0.36633102    -1.40400
C1099       C  0.39143139  0.73152711  0.32843603     1.11100
C1100       C  0.28838788  0.82146621  0.37659598     1.11200
C1101       C  0.34741617  0.84159609  0.30006597     1.11200
C1102       C  0.33787304  0.73497245  0.38582422     1.11100
O1103       O  0.15615562  0.68741664  0.19558143    -0.78500
O1104       O  0.17728438  0.73815866  0.12635712    -0.78500
O1105       O  0.19203250  0.66346004  0.13776389    -0.78500
O1106       O  0.09379315  0.76140931  0.14687780    -0.78500
O1107       O  0.20948930  0.69064787  0.09557851    -0.78600
O1108       O  0.12979885  0.74398311  0.18076870    -0.78500
O1109       O  0.13762826  0.76019872  0.09926681    -0.78500
O1110       O  0.15081380  0.63868789  0.17870903    -0.78500
C1111       C  0.16030030  0.65801836  0.19959507     1.11200
C1112       C  0.16497986  0.76216711  0.11255460     1.11100
C1113       C  0.21511038  0.67474473  0.12051608     1.11200
C1114       C  0.11220044  0.76602808  0.17063940     1.11100
O1115       O  0.06738352  0.71312319  0.17163455    -0.78500
O1116       O  0.15880786  0.65157760  0.08569878    -0.78600
O1117       O  0.09781121  0.63503323  0.13773483    -0.78500
O1118       O  0.10490896  0.70592455  0.06954652    -0.78500
O1119       O  0.15660740  0.71332324  0.06679079    -0.78500
O1120       O  0.09368230  0.65630925  0.18576248    -0.78500
O1121       O  0.06303913  0.70520555  0.11979844    -0.78400
O1122       O  0.15772725  0.61158116  0.12067541    -0.78500
Co1123     Co  0.11321843  0.70045047  0.18095652     1.51500
Co1124     Co  0.16678461  0.69527968  0.10959859     1.51700
Co1125     Co  0.14274179  0.65186214  0.13388073     1.51600
Co1126     Co  0.10092770  0.73047643  0.10994565     1.51500
O1127       O  0.12632500  0.69673539  0.13479488    -1.40400
C1128       C  0.05078396  0.70644721  0.14709549     1.11100
C1129       C  0.16241104  0.62160376  0.09263290     1.11200
C1130       C  0.08542972  0.63516327  0.16555702     1.11200
C1131       C  0.13000897  0.70932060  0.05307369     1.11100
O1132       O  0.19810363  0.84869963  0.31306024    -0.78500
O1133       O  0.12931052  0.82280858  0.26287265    -0.78500
O1134       O  0.14100735  0.81033254  0.33735346    -0.78500
O1135       O  0.14515301  0.90530468  0.23719434    -0.78500
O1136       O  0.09945551  0.79037278  0.31044476    -0.78600
O1137       O  0.18194071  0.87265911  0.25583012    -0.78500
O1138       O  0.09928683  0.85980387  0.24033094    -0.78500
O1139       O  0.17986578  0.85371218  0.36129082    -0.78500
C1140       C  0.20131524  0.84433396  0.34242856     1.11200
C1141       C  0.11460317  0.83357275  0.23877262     1.11100
C1142       C  0.12501670  0.78636236  0.32613821     1.11200
C1143       C  0.17001583  0.88800280  0.23307131     1.11100
O1144       O  0.16902163  0.93482391  0.28464275    -0.78500
O1145       O  0.08685425  0.84050869  0.34872485    -0.78600
O1146       O  0.13607603  0.90442663  0.36380613    -0.78500
O1147       O  0.06908139  0.89285099  0.29431871    -0.78500
O1148       O  0.06806261  0.84130413  0.28761085    -0.78500
O1149       O  0.18433299  0.91072694  0.34257580    -0.78500
O1150       O  0.11657494  0.93656026  0.29234071    -0.78400
O1151       O  0.12179994  0.84476554  0.38846092    -0.78500
Co1152     Co  0.18085863  0.89022317  0.29886700     1.51500
Co1153     Co  0.11168257  0.83325579  0.30530244     1.51700
Co1154     Co  0.13443198  0.85939332  0.34792509     1.51600
Co1155     Co  0.10863857  0.89766746  0.26870314     1.51500
O1156       O  0.13502401  0.87473198  0.30291393    -1.40400
C1157       C  0.14327043  0.95020426  0.29026753     1.11100
C1158       C  0.09390024  0.83803313  0.37865145     1.11200
C1159       C  0.16376331  0.91752946  0.36404361     1.11200
C1160       C  0.05350676  0.86721066  0.29249077     1.11100
O1161       O  0.34591966  0.91327676  0.15798950    -0.78500
O1162       O  0.28523858  0.83451924  0.05990116    -0.78500
O1163       O  0.36324165  0.86816560  0.09433357    -0.78500
O1164       O  0.29147502  0.93262580  0.10685034    -0.78500
O1165       O  0.34342151  0.82008391  0.08464697    -0.78600
O1166       O  0.28406001  0.93068544  0.15808345    -0.78500
O1167       O  0.29123860  0.88693419  0.06010441    -0.78500
O1168       O  0.38699379  0.87943842  0.15445568    -0.78500
C1169       C  0.37617008  0.90691116  0.16106231     1.11200
C1170       C  0.29069528  0.86071827  0.04543443     1.11100
C1171       C  0.36445188  0.84156846  0.07966346     1.11200
C1172       C  0.28935011  0.94667922  0.13328428     1.11100
O1173       O  0.26053748  0.86854131  0.17365393    -0.78500
O1174       O  0.31326461  0.80175292  0.14468312    -0.78600
O1175       O  0.33584407  0.85783279  0.18752808    -0.78500
O1176       O  0.23621184  0.85564140  0.08998176    -0.78500
O1177       O  0.25570284  0.81802450  0.12093371    -0.78500
O1178       O  0.30767930  0.89824207  0.20750633    -0.78500
O1179       O  0.23753308  0.89920037  0.13751961    -0.78400
O1180       O  0.36160898  0.82106013  0.14202048    -0.78500
Co1181     Co  0.30296523  0.88736067  0.16432145     1.51500
Co1182     Co  0.29912723  0.82105908  0.10416224     1.51700
Co1183     Co  0.34672782  0.86644363  0.13884046     1.51600
Co1184     Co  0.26687352  0.89246936  0.09960099     1.51500
O1185       O  0.30158566  0.86585754  0.12211842    -1.40400
C1186       C  0.23610797  0.88333407  0.16334641     1.11100
C1187       C  0.34292487  0.79846318  0.14904915     1.11200
C1188       C  0.32468668  0.87364198  0.21163166     1.11200
C1189       C  0.23258401  0.83011772  0.10615204     1.11100
O1190       O  0.83634247  0.58659711  0.31759999    -0.78500
O1191       O  0.78584848  0.65841090  0.43227057    -0.78500
O1192       O  0.88549355  0.65568416  0.37449737    -0.78500
O1193       O  0.78740293  0.56016765  0.38618314    -0.78500
O1194       O  0.84777544  0.65635184  0.41172296    -0.78600
O1195       O  0.77903274  0.56236449  0.33414623    -0.78500
O1196       O  0.79176356  0.60677715  0.43244539    -0.78500
O1197       O  0.86002357  0.59529408  0.36405485    -0.78500
C1198       C  0.85878184  0.58077351  0.33754207     1.11200
C1199       C  0.78949626  0.63264267  0.44747793     1.11100
C1200       C  0.87726019  0.66082781  0.40309507     1.11200
C1201       C  0.78563854  0.54681624  0.35922381     1.11100
O1202       O  0.74801576  0.62337745  0.32244638    -0.78500
O1203       O  0.81078920  0.70803709  0.39954998    -0.78600
O1204       O  0.85462632  0.64331858  0.31699307    -0.78500
O1205       O  0.73747206  0.64088355  0.40127113    -0.78500
O1206       O  0.76207742  0.67603500  0.37055398    -0.78500
O1207       O  0.80428581  0.64841661  0.30516030    -0.78500
O1208       O  0.73195301  0.59107612  0.36013920    -0.78400
O1209       O  0.83304486  0.68845083  0.35592553    -0.78500
Co1210     Co  0.79201010  0.60676852  0.32197212     1.51500
Co1211     Co  0.80388183  0.66471812  0.38847353     1.51700
Co1212     Co  0.84411882  0.63993360  0.36362336     1.51600
Co1213     Co  0.76487068  0.60086320  0.39403154     1.51500
O1214       O  0.79890175  0.62280397  0.36643349    -1.40400
C1215       C  0.72636160  0.60685577  0.33506459     1.11100
C1216       C  0.82483974  0.71248377  0.37333495     1.11200
C1217       C  0.83304334  0.65062755  0.29715376     1.11200
C1218       C  0.73733646  0.66689999  0.38518626     1.11100
O1219       O  0.65084060  0.81193249  0.30585340    -0.78500
O1220       O  0.68132786  0.76427920  0.37375296    -0.78500
O1221       O  0.68565601  0.84046734  0.36004813    -0.78500
O1222       O  0.59916401  0.73163461  0.35725673    -0.78500
O1223       O  0.71118703  0.81668819  0.40002824    -0.78600
O1224       O  0.63077065  0.75240270  0.32109634    -0.78500
O1225       O  0.64568447  0.73826487  0.40271678    -0.78500
O1226       O  0.64131213  0.86019491  0.32255698    -0.78500
C1227       C  0.65196398  0.84155640  0.30139164     1.11200
C1228       C  0.67174820  0.73879254  0.38698691     1.11100
C1229       C  0.71169638  0.83351309  0.37482369     1.11200
C1230       C  0.61530518  0.72889532  0.33154442     1.11100
O1231       O  0.56708947  0.77746410  0.33425500    -0.78500
O1232       O  0.65699075  0.84882145  0.41576338    -0.78600
O1233       O  0.59063706  0.85863076  0.36763328    -0.78500
O1234       O  0.60896077  0.78799047  0.43526848    -0.78500
O1235       O  0.66154292  0.78773885  0.43590145    -0.78500
O1236       O  0.58649660  0.83706580  0.31976366    -0.78500
O1237       O  0.56366996  0.78412958  0.38636962    -0.78400
O1238       O  0.64878759  0.88829950  0.38138501    -0.78500
Co1239     Co  0.61043300  0.79470499  0.32288003     1.51500
Co1240     Co  0.66754146  0.80596413  0.39136183     1.51700
Co1241     Co  0.63678645  0.84657344  0.36831307     1.51600
Co1242     Co  0.60522827  0.76338932  0.39430588     1.51500
O1243       O  0.62559496  0.79992568  0.36851439    -1.40400
C1244       C  0.55084967  0.78305389  0.35914862     1.11100
C1245       C  0.65779436  0.87894310  0.40865966     1.11200
C1246       C  0.57803342  0.85818343  0.34001769     1.11200
C1247       C  0.63500993  0.78857131  0.45096848     1.11100
O1248       O  0.69689733  0.64287291  0.18843380    -0.78500
O1249       O  0.62821220  0.67245825  0.23666115    -0.78500
O1250       O  0.64195060  0.68586296  0.16305674    -0.78500
O1251       O  0.63734489  0.58645208  0.26039674    -0.78500
O1252       O  0.60077049  0.70723984  0.18895459    -0.78600
O1253       O  0.67694256  0.61708587  0.24439706    -0.78500
O1254       O  0.59626170  0.63661478  0.25831169    -0.78500
O1255       O  0.67937405  0.64172820  0.13951283    -0.78500
C1256       C  0.70035062  0.64991945  0.15948024     1.11200
C1257       C  0.61309462  0.66205582  0.26061003     1.11100
C1258       C  0.62652181  0.71056530  0.17342638     1.11200
C1259       C  0.66265879  0.60216033  0.26611452     1.11100
O1260       O  0.66135326  0.55703935  0.21222908    -0.78500
O1261       O  0.58616331  0.65745049  0.15058873    -0.78600
O1262       O  0.63347947  0.59298212  0.13343048    -0.78500
O1263       O  0.56399065  0.60626268  0.20271128    -0.78500
O1264       O  0.56543178  0.65746527  0.21116651    -0.78500
O1265       O  0.68051836  0.58340078  0.15603879    -0.78500
O1266       O  0.60869033  0.55819591  0.20484971    -0.78400
O1267       O  0.62167215  0.65441042  0.11115294    -0.78500
Co1268     Co  0.67637771  0.60176096  0.20041703     1.51500
Co1269     Co  0.61031942  0.66328930  0.19407747     1.51700
Co1270     Co  0.63324474  0.63741940  0.15117669     1.51600
Co1271     Co  0.60281910  0.59807974  0.22876725     1.51500
O1272       O  0.63158262  0.62033862  0.19580152    -1.40400
C1273       C  0.63474005  0.54286075  0.20693134     1.11100
C1274       C  0.59391332  0.66187033  0.12113388     1.11200
C1275       C  0.66056297  0.57860520  0.13357391     1.11200
C1276       C  0.54937562  0.63234643  0.20606403     1.11100
O1277       O  0.69169832  0.89818763  0.20947693    -0.78500
O1278       O  0.74987667  0.81919160  0.12138481    -0.78500
O1279       O  0.64368211  0.81966690  0.14188504    -0.78500
O1280       O  0.76590062  0.89949497  0.14404484    -0.78500
O1281       O  0.69230291  0.80067013  0.14382810    -0.78600
O1282       O  0.74074486  0.86863923  0.17846536    -0.78500
O1283       O  0.76943706  0.85892518  0.09334644    -0.78500
O1284       O  0.66734188  0.85599697  0.18871082    -0.78500
C1285       C  0.67619610  0.87266010  0.21314223     1.11200
C1286       C  0.77320154  0.83287419  0.10840687     1.11100
C1287       C  0.66270915  0.79735517  0.14891519     1.11200
C1288       C  0.76582555  0.88344190  0.17004988     1.11100
O1289       O  0.71780577  0.93088149  0.16238450    -0.78500
O1290       O  0.66221889  0.82072386  0.08426166    -0.78600
O1291       O  0.61626262  0.87662541  0.15517502    -0.78500
O1292       O  0.71585338  0.89021046  0.06205273    -0.78500
O1293       O  0.72063803  0.83762377  0.06025363    -0.78500
O1294       O  0.65554928  0.91238320  0.15827118    -0.78500
O1295       O  0.71250714  0.93396378  0.11109091    -0.78400
O1296       O  0.64122670  0.86794819  0.09537226    -0.78500
Co1297     Co  0.69878402  0.88739923  0.16656249     1.51500
Co1298     Co  0.70645332  0.82216533  0.10415004     1.51700
Co1299     Co  0.65725953  0.86535377  0.14002495     1.51600
Co1300     Co  0.73805326  0.89437544  0.10370066     1.51500
O1301       O  0.70283185  0.86634504  0.12393684    -1.40400
C1302       C  0.71369875  0.94750709  0.13780587     1.11100
C1303       C  0.64047917  0.84173280  0.08002899     1.11200
C1304       C  0.62558637  0.90469961  0.16129036     1.11200
C1305       C  0.71610066  0.86440447  0.04633812     1.11100
O1306       O  0.91076277  0.66047756  0.18451849    -0.78500
O1307       O  0.84349670  0.71594003  0.06915667    -0.78500
O1308       O  0.83937064  0.61639324  0.12582862    -0.78500
O1309       O  0.94145144  0.70554297  0.11698600    -0.78500
O1310       O  0.83830691  0.65517433  0.08974325    -0.78600
O1311       O  0.93870807  0.71585015  0.16856970    -0.78500
O1312       O  0.89494523  0.70538326  0.06897453    -0.78500
O1313       O  0.90149147  0.63743656  0.13790226    -0.78500
C1314       C  0.91572264  0.63781073  0.16474938     1.11200
C1315       C  0.86890046  0.70953123  0.05406194     1.11100
C1316       C  0.83390954  0.62549614  0.09754440     1.11200
C1317       C  0.95444057  0.70755951  0.14413608     1.11100
O1318       O  0.87945045  0.75037307  0.17870127    -0.78500
O1319       O  0.79080905  0.69754781  0.10280044    -0.78600
O1320       O  0.85281567  0.64582132  0.18358517    -0.78500
O1321       O  0.86693086  0.76246753  0.09820535    -0.78500
O1322       O  0.82872998  0.74361066  0.12947826    -0.78500
O1323       O  0.85046123  0.69596373  0.19581257    -0.78500
O1324       O  0.91425140  0.76396779  0.14196362    -0.78400
O1325       O  0.80964731  0.67052767  0.14432212    -0.78500
Co1326     Co  0.89324858  0.70574076  0.17973755     1.51500
Co1327     Co  0.83499344  0.69998014  0.11311832     1.51700
Co1328     Co  0.85765137  0.65636258  0.13715225     1.51600
Co1329     Co  0.90321662  0.73162494  0.10755816     1.51500
O1330       O  0.87743824  0.70020424  0.13491707    -1.40400
C1331       C  0.89750832  0.77087949  0.16628721     1.11100
C1332       C  0.78594972  0.68184647  0.12803466     1.11200
C1333       C  0.84695626  0.66742416  0.20370530     1.11200
C1334       C  0.84109443  0.76641991  0.11394824     1.11100
O1335       O  0.85827661  0.80338736  0.31265007    -0.78500
O1336       O  0.82454311  0.87109040  0.26647431    -0.78500
O1337       O  0.81785401  0.85683288  0.34171119    -0.78500
O1338       O  0.91185787  0.86297192  0.23852203    -0.78500
O1339       O  0.79196718  0.89644723  0.31769557    -0.78600
O1340       O  0.88216046  0.82310795  0.25527558    -0.78500
O1341       O  0.85967383  0.90235721  0.24241183    -0.78500
O1342       O  0.86204849  0.82059285  0.36165067    -0.78500
C1343       C  0.85341664  0.79939056  0.34198998     1.11200
C1344       C  0.83385436  0.88567119  0.24171859     1.11100
C1345       C  0.79167153  0.87143986  0.33482528     1.11200
C1346       C  0.89741520  0.83686616  0.23337499     1.11100
O1347       O  0.94251010  0.83958667  0.28601822    -0.78500
O1348       O  0.84460645  0.91364786  0.35121882    -0.78600
O1349       O  0.91154374  0.86711611  0.36508472    -0.78500
O1350       O  0.89211915  0.93567683  0.29644676    -0.78500
O1351       O  0.84027046  0.93397984  0.29064877    -0.78500
O1352       O  0.91900367  0.81989510  0.34283240    -0.78500
O1353       O  0.94079883  0.89204604  0.29323178    -0.78400
O1354       O  0.85116063  0.87917951  0.39096336    -0.78500
Co1355     Co  0.89869659  0.82400123  0.29905671     1.51500
Co1356     Co  0.83620323  0.88903087  0.30846393     1.51700
Co1357     Co  0.86609474  0.86691122  0.35007666     1.51600
Co1358     Co  0.90000680  0.89707387  0.27037173     1.51500
O1359       O  0.87962773  0.86833669  0.30428229    -1.40400
C1360       C  0.95622514  0.86608684  0.29189030     1.11100
C1361       C  0.84205558  0.90641128  0.38101887     1.11200
C1362       C  0.92503614  0.83974426  0.36501913     1.11200
C1363       C  0.86580529  0.95017174  0.29392788     1.11100
O1364       O  0.15819807  0.41657955  0.31771217    -0.78500
O1365       O  0.21302176  0.34108803  0.43069896    -0.78500
O1366       O  0.11144721  0.35020789  0.37810980    -0.78500
O1367       O  0.20976855  0.43931272  0.38536186    -0.78500
O1368       O  0.15241658  0.34206113  0.41116934    -0.78600
O1369       O  0.21712161  0.43937995  0.33335679    -0.78500
O1370       O  0.20771964  0.39308111  0.43136140    -0.78500
O1371       O  0.13764491  0.40963154  0.36571205    -0.78500
C1372       C  0.13686325  0.42312601  0.33848371     1.11200
C1373       C  0.20935011  0.36684700  0.44615025     1.11100
C1374       C  0.12201346  0.34113573  0.40488414     1.11200
C1375       C  0.21174077  0.45403002  0.35936549     1.11100
O1376       O  0.24505623  0.37704814  0.31800890    -0.78500
O1377       O  0.18851166  0.29099660  0.39440647    -0.78600
O1378       O  0.13837119  0.36021771  0.32024915    -0.78500
O1379       O  0.26154714  0.36102045  0.40012655    -0.78500
O1380       O  0.23930255  0.32462065  0.36937798    -0.78500
O1381       O  0.18676872  0.35482205  0.30133679    -0.78500
O1382       O  0.26481861  0.40781042  0.35550331    -0.78400
O1383       O  0.16115538  0.31589802  0.35614480    -0.78500
Co1384     Co  0.20201972  0.39532759  0.32011504     1.51500
Co1385     Co  0.19592066  0.33500548  0.38625617     1.51700
Co1386     Co  0.15248898  0.36431305  0.36539350     1.51600
Co1387     Co  0.23320692  0.39943322  0.39186095     1.51500
O1388       O  0.19848379  0.37776877  0.36500641    -1.40400
C1389       C  0.26839614  0.39144779  0.33014559     1.11100
C1390       C  0.17069988  0.29012460  0.36990097     1.11200
C1391       C  0.15698128  0.35080159  0.29858094     1.11200
C1392       C  0.26346228  0.33508272  0.38455690     1.11100
O1393       O  0.40803136  0.31696725  0.15362567    -0.78500
O1394       O  0.34044638  0.43155600  0.21329345    -0.78500
O1395       O  0.33829722  0.37738780  0.11249607    -0.78500
O1396       O  0.43711574  0.38306430  0.20272293    -0.78500
O1397       O  0.33705703  0.41265955  0.15206313    -0.78600
O1398       O  0.43482632  0.33078113  0.21027016    -0.78500
O1399       O  0.39198597  0.43163115  0.20414443    -0.78500
O1400       O  0.39964610  0.36519460  0.13355242    -0.78500
C1401       C  0.41363595  0.33807718  0.13234042     1.11200
C1402       C  0.36589843  0.44672423  0.20756951     1.11100
C1403       C  0.33333759  0.40549097  0.12230408     1.11200
C1404       C  0.45031176  0.35594972  0.20350604     1.11100
O1405       O  0.37485892  0.31801562  0.24262806    -0.78500
O1406       O  0.28853239  0.39996582  0.19293653    -0.78600
O1407       O  0.35009070  0.32018943  0.13852654    -0.78500
O1408       O  0.36252791  0.40026300  0.25936861    -0.78500
O1409       O  0.32402244  0.37060810  0.23885104    -0.78500
O1410       O  0.34724628  0.30260503  0.18694581    -0.78500
O1411       O  0.40872968  0.35460534  0.25930803    -0.78400
O1412       O  0.30703981  0.35831397  0.16552870    -0.78500
Co1413     Co  0.38966089  0.31952380  0.19857925     1.51500
Co1414     Co  0.33202776  0.38811354  0.19585902     1.51700
Co1415     Co  0.35544432  0.36541245  0.15202754     1.51600
Co1416     Co  0.39899737  0.39131757  0.22870671     1.51500
O1417       O  0.37387537  0.36514221  0.19593005    -1.40400
C1418       C  0.39195841  0.32963778  0.26429560     1.11100
C1419       C  0.28355941  0.37458401  0.17751744     1.11200
C1420       C  0.34229301  0.29863890  0.15784825     1.11200
C1421       C  0.33604089  0.38538493  0.26227937     1.11100
O1422       O  0.40419725  0.19054216  0.28952803    -0.78500
O1423       O  0.32404487  0.24644472  0.37124437    -0.78500
O1424       O  0.32131968  0.14109920  0.35256359    -0.78500
O1425       O  0.40636742  0.26110240  0.35934626    -0.78500
O1426       O  0.30811668  0.19059195  0.34743142    -0.78600
O1427       O  0.37618091  0.23873183  0.32268623    -0.78500
O1428       O  0.35959649  0.26492360  0.40471904    -0.78500
O1429       O  0.36087702  0.16626115  0.30899001    -0.78500
C1430       C  0.37762238  0.17654832  0.28523238     1.11200
C1431       C  0.33455817  0.26895364  0.38765986     1.11100
C1432       C  0.30046814  0.16187056  0.34604918     1.11200
C1433       C  0.39119348  0.26274084  0.33318612     1.11100
O1434       O  0.43757927  0.21230244  0.34096425    -0.78500
O1435       O  0.31960236  0.15949794  0.40958803    -0.78600
O1436       O  0.37956418  0.11290126  0.34011530    -0.78500
O1437       O  0.38771228  0.20922488  0.43611713    -0.78500
O1438       O  0.33528467  0.21718832  0.43342036    -0.78500
O1439       O  0.41625173  0.15140215  0.33933805    -0.78500
O1440       O  0.43634284  0.20715140  0.39259816    -0.78400
O1441       O  0.36620709  0.13524555  0.40114881    -0.78500
Co1442     Co  0.39303257  0.19570927  0.33274493     1.51500
Co1443     Co  0.32412882  0.20351523  0.38902656     1.51700
Co1444     Co  0.36774780  0.15319209  0.35690907     1.51600
Co1445     Co  0.39631696  0.23284095  0.39714052     1.51500
O1446       O  0.36989549  0.19811711  0.37430162    -1.40400
C1447       C  0.45216915  0.20828512  0.36704961     1.11100
C1448       C  0.33899002  0.13647559  0.41523979     1.11200
C1449       C  0.40810993  0.12190379  0.33473519     1.11200
C1450       C  0.36054933  0.21070150  0.44908150     1.11100
O1451       O  0.18313420  0.08145435  0.33711133    -0.78500
O1452       O  0.07098182  0.16214995  0.28853952    -0.78500
O1453       O  0.12716927  0.15010050  0.38771230    -0.78500
O1454       O  0.11182607  0.06062514  0.28859143    -0.78500
O1455       O  0.09165812  0.15723672  0.34888799    -0.78600
O1456       O  0.16427791  0.06039921  0.27940572    -0.78500
O1457       O  0.06740363  0.11032385  0.29341318    -0.78500
O1458       O  0.13630108  0.09023793  0.36038146    -0.78500
C1459       C  0.16321685  0.07583533  0.35965023     1.11200
C1460       C  0.05399683  0.13730294  0.29157431     1.11100
C1461       C  0.09943594  0.15900491  0.37863000     1.11200
C1462       C  0.13850581  0.04613336  0.28659052     1.11100
O1463       O  0.17895194  0.12107698  0.25046389    -0.78500
O1464       O  0.10924071  0.20908690  0.31469461    -0.78600
O1465       O  0.18571673  0.13713533  0.35662648    -0.78500
O1466       O  0.10010010  0.14234226  0.23988151    -0.78500
O1467       O  0.13337300  0.17606649  0.26340501    -0.78500
O1468       O  0.19800016  0.14347325  0.30687280    -0.78500
O1469       O  0.13939643  0.09096588  0.23379307    -0.78400
O1470       O  0.14934389  0.18319594  0.33802229    -0.78500
Co1471     Co  0.17900282  0.10324119  0.29353040     1.51500
Co1472     Co  0.11594872  0.16506856  0.30564190     1.51700
Co1473     Co  0.13831804  0.13539389  0.34630409     1.51600
Co1474     Co  0.10573265  0.10192174  0.26665421     1.51500
O1475       O  0.13500808  0.12159220  0.30049756    -1.40400
C1476       C  0.16528575  0.10594116  0.22855547     1.11100
C1477       C  0.13470077  0.20929106  0.33119361     1.11200
C1478       C  0.20597864  0.14457316  0.33544962     1.11200
C1479       C  0.11749094  0.16753515  0.23915510     1.11100
O1480       O  0.31281944  0.14523195  0.19650437    -0.78500
O1481       O  0.26287282  0.17212356  0.12821030    -0.78500
O1482       O  0.33661483  0.18672290  0.14055782    -0.78500
O1483       O  0.23969020  0.08709955  0.13971019    -0.78500
O1484       O  0.30978139  0.20613402  0.09894242    -0.78600
O1485       O  0.25570913  0.11913835  0.17791817    -0.78500
O1486       O  0.24127530  0.13553450  0.09730129    -0.78500
O1487       O  0.36193470  0.14322225  0.17848709    -0.78500
C1488       C  0.34228548  0.15131695  0.19976138     1.11200
C1489       C  0.23886678  0.16152101  0.11308705     1.11100
C1490       C  0.32480418  0.21045460  0.12461017     1.11200
C1491       C  0.23387644  0.10345885  0.16439718     1.11100
O1492       O  0.28795328  0.05871373  0.16423839    -0.78500
O1493       O  0.34997044  0.15748232  0.08608194    -0.78600
O1494       O  0.36733745  0.09379613  0.13418277    -0.78500
O1495       O  0.29783264  0.10488821  0.06660544    -0.78500
O1496       O  0.28828865  0.15592030  0.06719975    -0.78500
O1497       O  0.34492486  0.08511672  0.18126272    -0.78500
O1498       O  0.29615706  0.05840823  0.11224458    -0.78400
O1499       O  0.38987581  0.15516075  0.12102085    -0.78500
Co1500     Co  0.30019303  0.10370774  0.17753449     1.51500
Co1501     Co  0.30593557  0.16302558  0.11054811     1.51700
Co1502     Co  0.34944685  0.13824523  0.13316125     1.51600
Co1503     Co  0.27150040  0.09763203  0.10509093     1.51500
O1504       O  0.30465181  0.12083471  0.13270354    -1.40400
C1505       C  0.29356150  0.04385606  0.13836897     1.11100
C1506       C  0.37987628  0.16185491  0.09332909     1.11200
C1507       C  0.36711188  0.07957361  0.16111416     1.11200
C1508       C  0.29429035  0.13081690  0.05192995     1.11100
O1509       O  0.08091671  0.34611552  0.15918627    -0.78500
O1510       O  0.16348521  0.28171716  0.06486813    -0.78500
O1511       O  0.13000786  0.36130910  0.09578253    -0.78500
O1512       O  0.06387468  0.28643090  0.10914333    -0.78500
O1513       O  0.17822918  0.34019084  0.08862204    -0.78600
O1514       O  0.06365956  0.28286497  0.16070859    -0.78500
O1515       O  0.11043574  0.28506523  0.06413263    -0.78500
O1516       O  0.11607561  0.38572242  0.15561153    -0.78500
C1517       C  0.08818496  0.37609039  0.16264455     1.11200
C1518       C  0.13704942  0.28547404  0.04999231     1.11100
C1519       C  0.15747670  0.36170037  0.08223126     1.11200
C1520       C  0.04845793  0.28546142  0.13485575     1.11100
O1521       O  0.12714132  0.26222792  0.17928919    -0.78500
O1522       O  0.19373111  0.31090815  0.15014166    -0.78600
O1523       O  0.13691901  0.33493196  0.18934304    -0.78500
O1524       O  0.14272557  0.23235572  0.09595467    -0.78500
O1525       O  0.17947094  0.25297016  0.12684866    -0.78500
O1526       O  0.09500693  0.30938153  0.21001596    -0.78500
O1527       O  0.09863323  0.23547839  0.14421967    -0.78400
O1528       O  0.17463607  0.35913124  0.14556017    -0.78500
Co1529     Co  0.10686589  0.30314603  0.16718066     1.51500
Co1530     Co  0.17601638  0.29627832  0.10917706     1.51700
Co1531     Co  0.12923656  0.34513467  0.14067493     1.51600
Co1532     Co  0.10501811  0.26271077  0.10450618     1.51500
O1533       O  0.13018212  0.29957840  0.12543630    -1.40400
C1534       C  0.11441312  0.23644554  0.17020669     1.11100
C1535       C  0.19648068  0.34042650  0.15461970     1.11200
C1536       C  0.12079740  0.32480493  0.21359167     1.11200
C1537       C  0.16875056  0.22953931  0.11166883     1.11100
O1538       O  0.64868409  0.30180006  0.18251564    -0.78500
O1539       O  0.67398302  0.36788541  0.23691493    -0.78500
O1540       O  0.68870699  0.35799551  0.16296810    -0.78500
O1541       O  0.59051650  0.35090887  0.25936597    -0.78500
O1542       O  0.70807321  0.39874553  0.19115771    -0.78600
O1543       O  0.62291315  0.31429065  0.23985851    -0.78500
O1544       O  0.63627600  0.39701068  0.25943808    -0.78500
O1545       O  0.64470684  0.32143679  0.13492836    -0.78500
C1546       C  0.65323748  0.29916177  0.15318769     1.11200
C1547       C  0.66285932  0.38211354  0.26108056     1.11100
C1548       C  0.71253165  0.37359166  0.17516687     1.11200
C1549       C  0.60738885  0.32566792  0.26283622     1.11100
O1550       O  0.56204342  0.32931668  0.21001924    -0.78500
O1551       O  0.65878753  0.41331007  0.15227855    -0.78600
O1552       O  0.59547577  0.36745314  0.13357711    -0.78500
O1553       O  0.60464712  0.42997382  0.20623041    -0.78500
O1554       O  0.65646168  0.42997074  0.21371764    -0.78500
O1555       O  0.58713560  0.31849065  0.15187492    -0.78500
O1556       O  0.55990768  0.38180623  0.20475760    -0.78400
O1557       O  0.65649801  0.37990067  0.11133291    -0.78500
Co1558     Co  0.60677428  0.31842988  0.19629789     1.51500
Co1559     Co  0.66470115  0.38699748  0.19481829     1.51700
Co1560     Co  0.64008579  0.36617077  0.15075618     1.51600
Co1561     Co  0.59883303  0.38889733  0.22973994     1.51500
O1562       O  0.62281058  0.36405906  0.19514392    -1.40400
C1563       C  0.54660870  0.35482310  0.20439057     1.11100
C1564       C  0.66266106  0.40729988  0.12233623     1.11200
C1565       C  0.58124049  0.34056770  0.13165727     1.11200
C1566       C  0.63075823  0.44512123  0.20873183     1.11100
O1567       O  0.58669583  0.14907817  0.34162637    -0.78500
O1568       O  0.66642823  0.21523929  0.43722674    -0.78500
O1569       O  0.63594111  0.13433090  0.40482647    -0.78500
O1570       O  0.56629885  0.20498840  0.39372379    -0.78500
O1571       O  0.68305287  0.15762803  0.41301197    -0.78600
O1572       O  0.56594222  0.21042887  0.34219381    -0.78500
O1573       O  0.61387809  0.20795840  0.43894012    -0.78500
O1574       O  0.62317868  0.11047179  0.34422202    -0.78500
C1575       C  0.59491930  0.11947414  0.33761886     1.11200
C1576       C  0.64069129  0.20979692  0.45275564     1.11100
C1577       C  0.66305179  0.13544004  0.41907103     1.11200
C1578       C  0.55085786  0.20664905  0.36798146     1.11100
O1579       O  0.62773301  0.23583841  0.32422772    -0.78500
O1580       O  0.69776300  0.18738532  0.35168724    -0.78600
O1581       O  0.64194100  0.16303711  0.31163926    -0.78500
O1582       O  0.64218888  0.26261051  0.40682107    -0.78500
O1583       O  0.67930648  0.24411357  0.37477527    -0.78500
O1584       O  0.59900662  0.18776805  0.29183731    -0.78500
O1585       O  0.59709237  0.25879260  0.36015558    -0.78400
O1586       O  0.68059368  0.13854091  0.35572010    -0.78500
Co1587     Co  0.61037875  0.19319820  0.33484567     1.51500
Co1588     Co  0.67899139  0.20119536  0.39263935     1.51700
Co1589     Co  0.63470232  0.15115011  0.36016319     1.51600
Co1590     Co  0.60612876  0.23074362  0.39883807     1.51500
O1591       O  0.63332318  0.19613792  0.37661923    -1.40400
C1592       C  0.61232596  0.25995154  0.33391573     1.11100
C1593       C  0.70194023  0.15799459  0.34725307     1.11200
C1594       C  0.62535638  0.17338497  0.28768503     1.11200
C1595       C  0.66717022  0.26679156  0.38995278     1.11100
O1596       O  0.81265187  0.34800086  0.30372763    -0.78500
O1597       O  0.75909932  0.32314943  0.37147409    -0.78500
O1598       O  0.83518815  0.30981483  0.36039279    -0.78500
O1599       O  0.73475192  0.40509349  0.35364524    -0.78500
O1600       O  0.80701670  0.28952349  0.40058741    -0.78600
O1601       O  0.75454090  0.37195103  0.31818520    -0.78500
O1602       O  0.73654596  0.36077106  0.40051803    -0.78500
O1603       O  0.86084780  0.35342848  0.32264573    -0.78500
C1604       C  0.84237811  0.34381466  0.30102994     1.11200
C1605       C  0.73481198  0.33448055  0.38565004     1.11100
C1606       C  0.82384227  0.28555558  0.37583796     1.11200
C1607       C  0.73131817  0.38757306  0.32902835     1.11100
O1608       O  0.78303692  0.43433912  0.33094923    -0.78500
O1609       O  0.84518005  0.34006678  0.41436777    -0.78600
O1610       O  0.86183858  0.40391253  0.36648332    -0.78500
O1611       O  0.78979299  0.39320755  0.43197730    -0.78500
O1612       O  0.78371767  0.34136436  0.43283750    -0.78500
O1613       O  0.84180922  0.41022868  0.31810041    -0.78500
O1614       O  0.78976822  0.43710509  0.38300636    -0.78400
O1615       O  0.88614844  0.34426246  0.38058682    -0.78500
Co1616     Co  0.79778017  0.38960850  0.32029609     1.51500
Co1617     Co  0.80187590  0.33300078  0.38931958     1.51700
Co1618     Co  0.84575240  0.35890102  0.36729303     1.51600
Co1619     Co  0.76552204  0.39810505  0.39118012     1.51500
O1620       O  0.80043061  0.37448382  0.36604154    -1.40400
C1621       C  0.78825937  0.45028965  0.35615901     1.11100
C1622       C  0.87548182  0.33775635  0.40797448     1.11200
C1623       C  0.86266484  0.41726351  0.33917299     1.11200
C1624       C  0.78764587  0.36741431  0.44759010     1.11100
O1625       O  0.65764453  0.08630220  0.18210195    -0.78500
O1626       O  0.71374305  0.15428901  0.06663501    -0.78500
O1627       O  0.61256394  0.15622521  0.12077677    -0.78500
O1628       O  0.70837910  0.05845365  0.11549694    -0.78500
O1629       O  0.65241244  0.15730710  0.08582552    -0.78600
O1630       O  0.71567850  0.06068784  0.16743375    -0.78500
O1631       O  0.70646442  0.10276667  0.06784617    -0.78500
O1632       O  0.63495495  0.09464247  0.13503591    -0.78500
C1633       C  0.63555822  0.08028623  0.16196783     1.11200
C1634       C  0.70840086  0.12843761  0.05231498     1.11100
C1635       C  0.62275205  0.16301336  0.09318660     1.11200
C1636       C  0.71059025  0.04481531  0.14207981     1.11100
O1637       O  0.74556702  0.12283872  0.17980511    -0.78500
O1638       O  0.69252193  0.20597489  0.09714659    -0.78600
O1639       O  0.63964061  0.14454426  0.17855201    -0.78500
O1640       O  0.76161914  0.13539468  0.09735639    -0.78500
O1641       O  0.73979415  0.17282861  0.12698875    -0.78500
O1642       O  0.68858075  0.14762054  0.19616835    -0.78500
O1643       O  0.76414789  0.08993235  0.14363712    -0.78400
O1644       O  0.66566171  0.18796741  0.13937106    -0.78500
Co1645     Co  0.70197368  0.10589364  0.17877078     1.51500
Co1646     Co  0.69657333  0.16319686  0.10994171     1.51700
Co1647     Co  0.65289108  0.13917464  0.13332482     1.51600
Co1648     Co  0.73233910  0.09778428  0.10728043     1.51500
O1649       O  0.69790872  0.12156085  0.13331028    -1.40400
C1650       C  0.76829890  0.10687028  0.16851343     1.11100
C1651       C  0.67676728  0.21124671  0.12222898     1.11200
C1652       C  0.65908622  0.15245400  0.20004910     1.11200
C1653       C  0.76369535  0.16203410  0.11182065     1.11100
O1654       O  0.91605634  0.17937938  0.34023558    -0.78500
O1655       O  0.84370180  0.06421920  0.28592893    -0.78500
O1656       O  0.84709511  0.11940204  0.38603632    -0.78500
O1657       O  0.94212221  0.11184203  0.28911811    -0.78500
O1658       O  0.84301698  0.08410198  0.34686268    -0.78600
O1659       O  0.93994771  0.16416161  0.28199360    -0.78500
O1660       O  0.89586508  0.06352160  0.29137421    -0.78500
O1661       O  0.90779672  0.13191005  0.36214652    -0.78500
C1662       C  0.92181797  0.15905946  0.36216617     1.11200
C1663       C  0.86936641  0.04867388  0.29012358     1.11100
C1664       C  0.84012260  0.09156363  0.37665242     1.11200
C1665       C  0.95580162  0.13871606  0.28749164     1.11100
O1666       O  0.87714285  0.17771209  0.25390520    -0.78500
O1667       O  0.79300424  0.09775217  0.30827988    -0.78600
O1668       O  0.85832839  0.17695294  0.35935438    -0.78500
O1669       O  0.86321351  0.09490354  0.23810205    -0.78500
O1670       O  0.82653653  0.12556813  0.26018983    -0.78500
O1671       O  0.85409146  0.19541272  0.31123953    -0.78500
O1672       O  0.90916124  0.14059787  0.23482543    -0.78400
O1673       O  0.81381422  0.13922441  0.33426765    -0.78500
Co1674     Co  0.89524632  0.17645203  0.29667812     1.51500
Co1675     Co  0.83661413  0.10836011  0.30302223     1.51700
Co1676     Co  0.86273714  0.13148247  0.34564956     1.51600
Co1677     Co  0.90161870  0.10397711  0.26625997     1.51500
O1678       O  0.87892941  0.13083976  0.30074853    -1.40400
C1679       C  0.89203441  0.16563292  0.23096992     1.11100
C1680       C  0.78935548  0.12348788  0.32357593     1.11200
C1681       C  0.84972844  0.19882675  0.34064883     1.11200
C1682       C  0.83698157  0.11037688  0.23628687     1.11100
O1683       O  0.90218103  0.30322604  0.21022451    -0.78500
O1684       O  0.81940049  0.25379304  0.12343730    -0.78500
O1685       O  0.82277471  0.35825800  0.14833491    -0.78500
O1686       O  0.90180138  0.23576117  0.13738704    -0.78500
O1687       O  0.80388979  0.30990807  0.15001306    -0.78600
O1688       O  0.87228509  0.25740239  0.17514667    -0.78500
O1689       O  0.85651397  0.23605634  0.09092778    -0.78500
O1690       O  0.86080128  0.33123001  0.19140653    -0.78500
C1691       C  0.87693198  0.31927690  0.21491435     1.11200
C1692       C  0.83105836  0.23151265  0.10724821     1.11100
C1693       C  0.80062845  0.33917528  0.15554899     1.11200
C1694       C  0.88661470  0.23340519  0.16351192     1.11100
O1695       O  0.93446951  0.28186433  0.15902168    -0.78500
O1696       O  0.81979725  0.34279412  0.09044996    -0.78600
O1697       O  0.88075564  0.38408229  0.16030075    -0.78500
O1698       O  0.88727360  0.29261888  0.06334665    -0.78500
O1699       O  0.83466414  0.28604023  0.06344200    -0.78500
O1700       O  0.91593422  0.34413026  0.16234286    -0.78500
O1701       O  0.93456404  0.29040692  0.10794438    -0.78400
O1702       O  0.86808104  0.36299343  0.09934968    -0.78500
Co1703     Co  0.89072481  0.30022906  0.16701144     1.51500
Co1704     Co  0.82201695  0.29786825  0.10842753     1.51700
Co1705     Co  0.86824670  0.34442171  0.14329716     1.51600
Co1706     Co  0.89383591  0.26643880  0.10104229     1.51500
O1707       O  0.86768998  0.30014174  0.12528048    -1.40400
C1708       C  0.94982265  0.28679373  0.13361849     1.11100
C1709       C  0.84094441  0.36415228  0.08521979     1.11200
C1710       C  0.90879344  0.37409651  0.16622075     1.11200
C1711       C  0.86091032  0.29165296  0.04893553     1.11100
O1712       O  0.70307211  0.03312827  0.53715677    -0.78500
O1713       O  0.69957151  0.96992914  0.46804730    -0.78500
O1714       O  0.74041590  0.07009559  0.47253834    -0.78500
O1715       O  0.73782079  0.93144209  0.53227835    -0.78500
O1716       O  0.70113668  0.03570513  0.46886560    -0.78600
O1717       O  0.70091972  0.96819677  0.53630891    -0.78500
O1718       O  0.73676814  0.93315702  0.46966819    -0.78500
O1719       O  0.74213368  0.06785418  0.53506673    -0.78500
C1720       C  0.71306305  0.06110923  0.54082700     1.11200
C1721       C  0.70800641  0.94143435  0.46370042     1.11100
C1722       C  0.71105012  0.06400256  0.46637314     1.11200
C1723       C  0.70934146  0.93956038  0.53948775     1.11100
O1724       O  0.76343182  0.96663652  0.56951099    -0.78500
O1725       O  0.76272951  0.03303387  0.43472839    -0.78600
O1726       O  0.80330337  0.03318968  0.53558644    -0.78500
O1727       O  0.79955051  0.96623162  0.46894035    -0.78500
O1728       O  0.76148072  0.97007421  0.43354744    -0.78500
O1729       O  0.76529552  0.02961759  0.57128294    -0.78500
O1730       O  0.80058843  0.96425910  0.53311026    -0.78400
O1731       O  0.80177918  0.03404724  0.46948291    -0.78500
Co1732     Co  0.73346932  0.99957848  0.54927911     1.51500
Co1733     Co  0.73172290  0.00205175  0.45572484     1.51700
Co1734     Co  0.77141219  0.04683286  0.50300460     1.51600
Co1735     Co  0.76840494  0.95304229  0.50105902     1.51500
O1736       O  0.75121664  0.00044056  0.50229225    -1.40400
C1737       C  0.79192396  0.95951736  0.56126436     1.11100
C1738       C  0.79199142  0.03818011  0.44147564     1.11200
C1739       C  0.79451231  0.03525905  0.56429293     1.11200
C1740       C  0.79022464  0.96276908  0.44086194     1.11100
C1741       C  0.82753679  0.06862466  0.39905141    -0.11600
C1742       C  0.81285783  0.05268491  0.41816107    -0.13200
C1743       C  0.89113233  0.18318823  0.20147109    -0.11600
C1744       C  0.88861354  0.20426716  0.18182844    -0.13200
C1745       C  0.81754987  0.10829782  0.20780436    -0.11600
C1746       C  0.79770235  0.10642380  0.18672948    -0.13200
C1747       C  0.79220133  0.18166771  0.10852506    -0.11600
C1748       C  0.81296874  0.20198914  0.10632574    -0.13200
C1749       C  0.85523755  0.33103963  0.27227268    -0.11600
C1750       C  0.86556813  0.32405846  0.24658012    -0.13200
C1751       C  0.83738946  0.22833610  0.35311006    -0.11600
C1752       C  0.82998616  0.25395020  0.36398238    -0.13200
C1753       C  0.75783455  0.13590322  0.32867193    -0.11600
C1754       C  0.73185295  0.14643708  0.33531623    -0.13200
C1755       C  0.64749048  0.16356426  0.22999449    -0.11600
C1756       C  0.63742792  0.16921235  0.25618433    -0.13200
C1757       C  0.68981097  0.08873996  0.45326815    -0.11600
C1758       C  0.67445111  0.10935539  0.43940970    -0.13200
C1759       C  0.70583114  0.31586570  0.38752164    -0.11600
C1760       C  0.68470486  0.29631945  0.38968798    -0.13200
C1761       C  0.74424696  0.36151984  0.17141901    -0.11600
C1762       C  0.77055192  0.35112288  0.16628639    -0.13200
C1763       C  0.67158774  0.24335672  0.13203699    -0.11600
C1764       C  0.66501782  0.26980756  0.14081005    -0.13200
C1765       C  0.60763202  0.30757900  0.29231438    -0.11600
C1766       C  0.60966387  0.28767525  0.31323211    -0.13200
C1767       C  0.68222227  0.38430651  0.28961378    -0.11600
C1768       C  0.70201786  0.38686763  0.31058035    -0.13200
C1769       C  0.01371605  0.28670569  0.13456897    -0.11600
C1770       C  0.98456971  0.28721675  0.13395554    -0.13200
C1771       C  0.20976397  0.18080521  0.11159098    -0.11600
C1772       C  0.18840580  0.20078368  0.11075300    -0.13200
C1773       C  0.99037548  0.14002122  0.29004372    -0.11600
C1774       C  0.01936662  0.13949863  0.29140233    -0.13200
C1775       C  0.11691512  0.18843021  0.21162959    -0.11600
C1776       C  0.11591118  0.20888420  0.19108259    -0.13200
C1777       C  0.18187265  0.10324713  0.19887210    -0.11600
C1778       C  0.20303781  0.10241871  0.17941346    -0.13200
C1779       C  0.48693587  0.20622427  0.36769855    -0.11600
C1780       C  0.51605197  0.20569151  0.36802948    -0.13200
C1781       C  0.26736230  0.15398898  0.34343719    -0.11600
C1782       C  0.23889317  0.15019280  0.34238470    -0.13200
C1783       C  0.36529154  0.17219958  0.25388668    -0.11600
C1784       C  0.35406399  0.16485864  0.22860608    -0.13200
C1785       C  0.48413555  0.35402732  0.19986480    -0.11600
C1786       C  0.51280943  0.35348642  0.20026277    -0.13200
C1787       C  0.33212109  0.26838522  0.14655013    -0.11600
C1788       C  0.32778857  0.24195568  0.13669431    -0.13200
C1789       C  0.22562088  0.35289671  0.16711814    -0.11600
C1790       C  0.25162325  0.36319697  0.17358137    -0.13200
C1791       C  0.39388938  0.31180398  0.29361227    -0.11600
C1792       C  0.39306081  0.29121501  0.31380936    -0.13200
C1793       C  0.13299567  0.33050788  0.24471381    -0.11600
C1794       C  0.14407026  0.33791108  0.26997941    -0.13200
C1795       C  0.14812252  0.23816289  0.34333787    -0.11600
C1796       C  0.16013402  0.26072073  0.35633013    -0.13200
C1797       C  0.31494940  0.29752517  0.38848214    -0.11600
C1798       C  0.29268992  0.31620693  0.38648344    -0.13200
C1799       C  0.29804942  0.39075515  0.31242425    -0.11600
C1800       C  0.31774046  0.38810744  0.29135786    -0.13200
C1801       C  0.86573676  0.98498482  0.29366960    -0.11600
C1802       C  0.86790981  0.01396682  0.29256031    -0.13200
C1803       C  0.81090658  0.94624023  0.41884253    -0.11600
C1804       C  0.82716560  0.92905132  0.40220825    -0.13200
C1805       C  0.90073516  0.80082797  0.18260829    -0.11600
C1806       C  0.90032712  0.82073933  0.20334925    -0.13200
C1807       C  0.71000262  0.01045676  0.14265840    -0.11600
C1808       C  0.71106223  0.98169182  0.14049196    -0.13200
C1809       C  0.80339239  0.81644850  0.10918288    -0.11600
C1810       C  0.82358397  0.79585464  0.11142611    -0.13200
C1811       C  0.81328313  0.88508381  0.21334737    -0.11600
C1812       C  0.79321757  0.88434329  0.19203905    -0.13200
C1813       C  0.63353329  0.50841063  0.20586831    -0.11600
C1814       C  0.63161373  0.47953258  0.20656919    -0.13200
C1815       C  0.65033832  0.76753780  0.16050970    -0.11600
C1816       C  0.63930904  0.74187275  0.16759406    -0.13200
C1817       C  0.72880888  0.66580585  0.14880011    -0.11600
C1818       C  0.75401940  0.67565436  0.13895883    -0.13200
C1819       C  0.74075932  0.84559978  0.36132884    -0.11600
C1820       C  0.76276573  0.85832057  0.34767368    -0.13200
C1821       C  0.66930607  0.86187480  0.24473549    -0.11600
C1822       C  0.66260627  0.85345020  0.27126184    -0.13200
C1823       C  0.68633009  0.91948885  0.44791700    -0.11600
C1824       C  0.67086660  0.90146718  0.43135909    -0.13200
C1825       C  0.61363199  0.70049682  0.31139909    -0.11600
C1826       C  0.61314290  0.68099463  0.28984331    -0.13200
C1827       C  0.78893076  0.51293554  0.35690807    -0.11600
C1828       C  0.78971893  0.48433876  0.35505949    -0.13200
C1829       C  0.84224055  0.66029895  0.23642805    -0.11600
C1830       C  0.83996878  0.65671554  0.26462188    -0.13200
C1831       C  0.83994926  0.77004809  0.35313727    -0.11600
C1832       C  0.83150117  0.74417753  0.36252477    -0.13200
C1833       C  0.67739144  0.60163460  0.29690729    -0.11600
C1834       C  0.69676463  0.60332306  0.31804847    -0.13200
C1835       C  0.71036914  0.68844352  0.38582239    -0.11600
C1836       C  0.69156797  0.71054407  0.38596649    -0.13200
C1837       C  0.29398859  0.00949953  0.13786178    -0.11600
C1838       C  0.29249149  0.98084406  0.13550612    -0.13200
C1839       C  0.14322090  0.98407746  0.29145863    -0.11600
C1840       C  0.14008731  0.01246774  0.29040283    -0.13200
C1841       C  0.01926836  0.86747067  0.29465049    -0.11600
C1842       C  0.99042213  0.86695367  0.29452417    -0.13200
C1843       C  0.18733465  0.88731209  0.20340262    -0.11600
C1844       C  0.20772237  0.88512120  0.18296144    -0.13200
C1845       C  0.98818672  0.70341786  0.14721021    -0.11600
C1846       C  0.01689573  0.70326947  0.14924690    -0.13200
C1847       C  0.18355361  0.79106926  0.10932590    -0.11600
C1848       C  0.20308639  0.81223326  0.10646492    -0.13200
C1849       C  0.11290377  0.81450314  0.21025173    -0.11600
C1850       C  0.11138185  0.79494711  0.18915011    -0.13200
C1851       C  0.48824323  0.78812565  0.35486550    -0.11600
C1852       C  0.51694309  0.78644915  0.35640344    -0.13200
C1853       C  0.33700301  0.85368249  0.26986652    -0.11600
C1854       C  0.33084478  0.86272800  0.24337963    -0.13200
C1855       C  0.23060784  0.83192149  0.35459541    -0.11600
C1856       C  0.25658363  0.82559473  0.36502488    -0.13200
C1857       C  0.36260511  0.50996222  0.20631882    -0.11600
C1858       C  0.36477067  0.48112614  0.20610821    -0.13200
C1859       C  0.51460187  0.63292630  0.20538834    -0.11600
C1860       C  0.48548221  0.63199410  0.20582787    -0.13200
C1861       C  0.36548967  0.74180983  0.16487951    -0.11600
C1862       C  0.35544350  0.76816647  0.15900057    -0.13200
C1863       C  0.27330029  0.66261798  0.14076213    -0.11600
C1864       C  0.24736986  0.66964756  0.13059547    -0.13200
C1865       C  0.39146508  0.70280190  0.30916852    -0.11600
C1866       C  0.38931126  0.68331304  0.28781990    -0.13200
C1867       C  0.21029085  0.51683291  0.36338889    -0.11600
C1868       C  0.21023017  0.48822141  0.36027517    -0.13200
C1869       C  0.14804565  0.72906332  0.33624701    -0.11600
C1870       C  0.13719794  0.75496123  0.33065054    -0.13200
C1871       C  0.17092829  0.64653116  0.22957108    -0.11600
C1872       C  0.17519103  0.63657105  0.25593209    -0.13200
C1873       C  0.29346348  0.61069501  0.31343591    -0.11600
C1874       C  0.31406793  0.60817482  0.29317271    -0.13200
C1875       C  0.29966779  0.68490368  0.38965678    -0.11600
C1876       C  0.31915144  0.70616962  0.38752550    -0.13200
C1877       C  0.29538975  0.86352271  0.98278479    -0.11600
C1878       C  0.29406591  0.86126651  0.01139734    -0.13200
C1879       C  0.12974267  0.71300676  0.99017887    -0.11600
C1880       C  0.12862038  0.71041142  0.01883254    -0.13200
C1881       C  0.18720139  0.80013785  0.89299884    -0.11600
C1882       C  0.20940050  0.81899175  0.89037079    -0.13200
C1883       C  0.11823588  0.81060479  0.79016548    -0.11600
C1884       C  0.11787789  0.78922023  0.80998992    -0.13200
C1885       C  0.18332200  0.89778896  0.80025474    -0.11600
C1886       C  0.20335547  0.89866047  0.82084506    -0.13200
C1887       C  0.20951942  0.63777891  0.51396735    -0.11600
C1888       C  0.21012902  0.63914047  0.48537615    -0.13200
C1889       C  0.14518418  0.65499238  0.76412534    -0.11600
C1890       C  0.15685132  0.64213406  0.74114024    -0.13200
C1891       C  0.14802706  0.72948077  0.66201565    -0.11600
C1892       C  0.13910205  0.75563633  0.66955027    -0.13200
C1893       C  0.35632214  0.73865396  0.84709341    -0.11600
C1894       C  0.34385874  0.76183642  0.85883266    -0.13200
C1895       C  0.26453224  0.64814655  0.85336097    -0.11600
C1896       C  0.23611237  0.65160629  0.85710860    -0.13200
C1897       C  0.31170686  0.60896638  0.70517276    -0.11600
C1898       C  0.28981095  0.60984244  0.68602831    -0.13200
C1899       C  0.36994980  0.78741704  0.51124911    -0.11600
C1900       C  0.37146956  0.78788965  0.48235450    -0.13200
C1901       C  0.23547824  0.84565289  0.65519651    -0.11600
C1902       C  0.26375385  0.84244301  0.65155096    -0.13200
C1903       C  0.36038689  0.83187442  0.74443379    -0.11600
C1904       C  0.35245633  0.83974728  0.77074233    -0.13200
C1905       C  0.32024663  0.69788671  0.60506875    -0.11600
C1906       C  0.29950087  0.67780208  0.60626052    -0.13200
C1907       C  0.38384337  0.69119535  0.71453847    -0.11600
C1908       C  0.38382226  0.71070173  0.69275379    -0.13200
C1909       C  0.71269479  0.86568047  0.01164190    -0.11600
C1910       C  0.71047504  0.86700322  0.98266866    -0.13200
C1911       C  0.86633881  0.70976250  0.99119235    -0.11600
C1912       C  0.86807564  0.70867232  0.01985777    -0.13200
C1913       C  0.98476194  0.70909285  0.86334415    -0.11600
C1914       C  0.01420903  0.70987234  0.86254377    -0.13200
C1915       C  0.81329041  0.79705011  0.89365614    -0.11600
C1916       C  0.79087938  0.81527867  0.88998255    -0.13200
C1917       C  0.01906325  0.86110182  0.71133194    -0.11600
C1918       C  0.99027058  0.85911555  0.71181523    -0.13200
C1919       C  0.82860857  0.92418550  0.59895749    -0.11600
C1920       C  0.81286697  0.94197727  0.58233837    -0.13200
C1921       C  0.88711490  0.79025450  0.81672998    -0.11600
C1922       C  0.89022968  0.81158039  0.79740779    -0.13200
C1923       C  0.81585774  0.88534035  0.78945912    -0.11600
C1924       C  0.79753390  0.88855068  0.81167406    -0.13200
C1925       C  0.51431886  0.63450161  0.79496996    -0.11600
C1926       C  0.48492062  0.63550697  0.79460902    -0.13200
C1927       C  0.73455266  0.64761744  0.85312537    -0.11600
C1928       C  0.76302618  0.65077905  0.85620832    -0.13200
C1929       C  0.64278515  0.73797203  0.84657957    -0.11600
C1930       C  0.65514362  0.76109930  0.85862771    -0.13200
C1931       C  0.78806871  0.63247299  0.51047466    -0.11600
C1932       C  0.78945934  0.63256741  0.48174666    -0.13200
C1933       C  0.84255492  0.64542968  0.73853700    -0.11600
C1934       C  0.85389107  0.65772867  0.76215069    -0.13200
C1935       C  0.84907852  0.73353102  0.64550946    -0.11600
C1936       C  0.85260120  0.76172432  0.64929938    -0.13200
C1937       C  0.70935193  0.61037686  0.68685306    -0.11600
C1938       C  0.68744389  0.60829508  0.70597622    -0.13200
C1939       C  0.51132449  0.78904046  0.64133268    -0.11600
C1940       C  0.48248651  0.79003552  0.64084096    -0.13200
C1941       C  0.63339726  0.78962406  0.51542591    -0.11600
C1942       C  0.63435256  0.78947561  0.48614009    -0.13200
C1943       C  0.64909127  0.84683781  0.73538963    -0.11600
C1944       C  0.65122828  0.84958297  0.76379821    -0.13200
C1945       C  0.74001201  0.83907953  0.64272383    -0.11600
C1946       C  0.76274252  0.85156426  0.65537844    -0.13200
C1947       C  0.67314265  0.89946556  0.57260134    -0.11600
C1948       C  0.68826969  0.91737526  0.55560458    -0.13200
C1949       C  0.61039901  0.68401668  0.71214491    -0.11600
C1950       C  0.60812024  0.70199226  0.68941124    -0.13200
C1951       C  0.70141462  0.68368304  0.60812047    -0.11600
C1952       C  0.68315752  0.70617924  0.61078426    -0.13200
C1953       C  0.29438235  0.13334698  0.98953208    -0.11600
C1954       C  0.29546985  0.13176030  0.01803562    -0.13200
C1955       C  0.29668560  0.99074334  0.86300847    -0.11600
C1956       C  0.29774298  0.01958170  0.86259426    -0.13200
C1957       C  0.13923254  0.01680167  0.71162854    -0.11600
C1958       C  0.13808647  0.98809147  0.71087737    -0.13200
C1959       C  0.18999959  0.11331388  0.79730560    -0.11600
C1960       C  0.21191680  0.11456309  0.81637993    -0.13200
C1961       C  0.13452737  0.28868407  0.98741758    -0.11600
C1962       C  0.13664175  0.28803415  0.01598591    -0.13200
C1963       C  0.20119631  0.18061292  0.89762106    -0.11600
C1964       C  0.18126901  0.20161991  0.89599823    -0.13200
C1965       C  0.11605196  0.19477146  0.78817085    -0.11600
C1966       C  0.11603101  0.21545361  0.80852616    -0.13200
C1967       C  0.36349862  0.51149413  0.78760177    -0.11600
C1968       C  0.36421529  0.48255077  0.78749310    -0.13200
C1969       C  0.34721849  0.26606647  0.84648108    -0.11600
C1970       C  0.34594063  0.23790390  0.85135505    -0.13200
C1971       C  0.25482390  0.36471554  0.83259286    -0.11600
C1972       C  0.22912145  0.35540023  0.84153757    -0.13200
C1973       C  0.20499423  0.48595700  0.63635713    -0.11600
C1974       C  0.20433682  0.51497203  0.63693006    -0.13200
C1975       C  0.20862752  0.36681886  0.50950022    -0.11600
C1976       C  0.20825099  0.36654032  0.48060625    -0.13200
C1977       C  0.15580902  0.36108106  0.73861516    -0.11600
C1978       C  0.14367378  0.34926036  0.76190056    -0.13200
C1979       C  0.14654753  0.27269220  0.65987361    -0.11600
C1980       C  0.13641968  0.24698847  0.66743513    -0.13200
C1981       C  0.28780362  0.38632942  0.68699169    -0.11600
C1982       C  0.30851166  0.38559932  0.70758464    -0.13200
C1983       C  0.35906112  0.20775703  0.48258842    -0.11600
C1984       C  0.36006686  0.20781432  0.51100562    -0.13200
C1985       C  0.35654812  0.15968930  0.73806857    -0.11600
C1986       C  0.34459382  0.14826812  0.76158876    -0.13200
C1987       C  0.23467066  0.15535229  0.65190257    -0.11600
C1988       C  0.26324635  0.15690174  0.64885206    -0.13200
C1989       C  0.31967559  0.30081148  0.60172433    -0.11600
C1990       C  0.29875465  0.32087955  0.60197568    -0.13200
C1991       C  0.38875929  0.29049463  0.68066850    -0.11600
C1992       C  0.38984162  0.31211045  0.69971691    -0.13200
C1993       C  0.86519476  0.29204654  0.98677218    -0.11600
C1994       C  0.86187251  0.29354176  0.01507820    -0.13200
C1995       C  0.01504347  0.29395584  0.85986845    -0.11600
C1996       C  0.98583968  0.29335355  0.85993842    -0.13200
C1997       C  0.70656157  0.12992869  0.98966135    -0.11600
C1998       C  0.70612348  0.12844402  0.01825459    -0.13200
C1999       C  0.70992572  0.01700882  0.85936415    -0.11600
C2000       C  0.71079681  0.98825091  0.85752349    -0.13200
C2001       C  0.80363397  0.17608487  0.90193152    -0.11600
C2002       C  0.82306242  0.19737465  0.89952700    -0.13200
C2003       C  0.98638503  0.13515536  0.71180260    -0.11600
C2004       C  0.01559381  0.13631746  0.71166566    -0.13200
C2005       C  0.86482302  0.00927125  0.71029811    -0.11600
C2006       C  0.86542223  0.98013886  0.70859131    -0.13200
C2007       C  0.83175381  0.05955653  0.61048473    -0.11600
C2008       C  0.81662600  0.04699776  0.58882536    -0.13200
C2009       C  0.81714222  0.10742143  0.79968621    -0.11600
C2010       C  0.79697143  0.10993214  0.82024989    -0.13200
C2011       C  0.88655382  0.18840260  0.79086097    -0.11600
C2012       C  0.88674385  0.20954036  0.81100743    -0.13200
C2013       C  0.51220329  0.20490951  0.63441650    -0.11600
C2014       C  0.48315130  0.20426202  0.63361380    -0.13200
C2015       C  0.63961505  0.20757516  0.51576426    -0.11600
C2016       C  0.64127902  0.20791332  0.48702345    -0.13200
C2017       C  0.74774757  0.17366790  0.63856314    -0.11600
C2018       C  0.77320963  0.16470585  0.64872109    -0.13200
C2019       C  0.66765832  0.15410042  0.73064135    -0.11600
C2020       C  0.67605012  0.14436032  0.75637979    -0.13200
C2021       C  0.67873285  0.10290861  0.57233992    -0.11600
C2022       C  0.69276201  0.08419495  0.55576423    -0.13200
C2023       C  0.48555334  0.35981606  0.78683705    -0.11600
C2024       C  0.51441158  0.36085736  0.78733432    -0.13200
C2025       C  0.63836525  0.48160141  0.79279299    -0.11600
C2026       C  0.63865270  0.51042047  0.79207217    -0.13200
C2027       C  0.74562372  0.35952470  0.83239136    -0.11600
C2028       C  0.77120806  0.34935589  0.84062394    -0.13200
C2029       C  0.65840100  0.26307014  0.83993555    -0.11600
C2030       C  0.66252654  0.23515149  0.84482282    -0.13200
C2031       C  0.60485844  0.32103302  0.69632822    -0.11600
C2032       C  0.60323894  0.30062145  0.67618899    -0.13200
C2033       C  0.79258910  0.51383603  0.63792118    -0.11600
C2034       C  0.79259531  0.48458706  0.63813737    -0.13200
C2035       C  0.78862245  0.36745816  0.48215626    -0.11600
C2036       C  0.78841328  0.36643642  0.51109966    -0.13200
C2037       C  0.84443251  0.35671133  0.73919951    -0.11600
C2038       C  0.85652847  0.34430868  0.76220598    -0.13200
C2039       C  0.86419398  0.24270657  0.66760894    -0.11600
C2040       C  0.85431456  0.26852440  0.65948903    -0.13200
C2041       C  0.69167844  0.38541037  0.71030833    -0.11600
C2042       C  0.71259196  0.38490762  0.69002877    -0.13200
C2043       C  0.68192342  0.29517520  0.60909604    -0.11600
C2044       C  0.70178611  0.31620362  0.60757758    -0.13200
C2045       C  0.55572756  0.69233859  0.91970426    -0.11600
C2046       C  0.57221813  0.67525960  0.90310031    -0.13200
C2047       C  0.58247565  0.81708080  0.94596531    -0.11600
C2048       C  0.59878986  0.83218725  0.92769616    -0.13200
C2049       C  0.44567085  0.69188026  0.92023403    -0.11600
C2050       C  0.42849255  0.67530077  0.90356252    -0.13200
C2051       C  0.41862428  0.81552274  0.94808296    -0.11600
C2052       C  0.40182371  0.83062606  0.93028992    -0.13200
C2053       C  0.45035978  0.69332903  0.08437044    -0.11600
C2054       C  0.43389388  0.67608935  0.10060707    -0.13200
C2055       C  0.39236015  0.83240914  0.06094165    -0.11600
C2056       C  0.41474032  0.81808039  0.04896742    -0.13200
C2057       C  0.55503010  0.69405376  0.08371234    -0.11600
C2058       C  0.57137724  0.67713029  0.10035399    -0.13200
C2059       C  0.58980442  0.81847880  0.04925391    -0.11600
C2060       C  0.61240631  0.83245445  0.06142862    -0.13200
C2061       C  0.90094209  0.57193286  0.67292566    -0.11600
C2062       C  0.91747724  0.55458338  0.68898940    -0.13200
C2063       C  0.94413046  0.58389822  0.81153880    -0.11600
C2064       C  0.92651039  0.60044675  0.82718282    -0.13200
C2065       C  0.90104849  0.42851098  0.67414171    -0.11600
C2066       C  0.91714876  0.44593846  0.69051540    -0.13200
C2067       C  0.94498668  0.41893844  0.81468960    -0.11600
C2068       C  0.92850115  0.40100689  0.83019238    -0.13200
C2069       C  0.08187588  0.44710962  0.69149771    -0.11600
C2070       C  0.09854419  0.43071521  0.67458460    -0.13200
C2071       C  0.05221558  0.42032768  0.81572982    -0.11600
C2072       C  0.06969349  0.40350542  0.83126915    -0.13200
C2073       C  0.08124617  0.55399482  0.69014535    -0.11600
C2074       C  0.09774054  0.57132562  0.67412227    -0.13200
C2075       C  0.05450150  0.58424153  0.81209573    -0.11600
C2076       C  0.07205625  0.60094661  0.82794682    -0.13200
C2077       C  0.91841487  0.68750328  0.44310224    -0.11600
C2078       C  0.90018649  0.67314423  0.42580131    -0.13200
C2079       C  0.95449003  0.81219527  0.41444133    -0.11600
C2080       C  0.94303998  0.82785207  0.39257600    -0.13200
C2081       C  0.89018657  0.66745391  0.55646971    -0.11600
C2082       C  0.91264075  0.68273845  0.54531380    -0.13200
C2083       C  0.94424205  0.82382326  0.61053764    -0.11600
C2084       C  0.95473605  0.80810514  0.58837151    -0.13200
C2085       C  0.08938492  0.68532040  0.45047621    -0.11600
C2086       C  0.11105703  0.67049870  0.43757032    -0.13200
C2087       C  0.07046389  0.82574588  0.40061198    -0.11600
C2088       C  0.05417171  0.81063071  0.41897260    -0.13200
C2089       C  0.11083329  0.66892874  0.55913860    -0.11600
C2090       C  0.08834580  0.68313282  0.54706994    -0.13200
C2091       C  0.05484807  0.80582671  0.58541538    -0.11600
C2092       C  0.07162983  0.82146889  0.60315808    -0.13200
C2093       C  0.69223145  0.44007952  0.91803215    -0.11600
C2094       C  0.67689116  0.42306743  0.90022152    -0.13200
C2095       C  0.83104217  0.38658497  0.94308264    -0.11600
C2096       C  0.81681568  0.40949919  0.95429352    -0.13200
C2097       C  0.68818613  0.54315865  0.91247683    -0.11600
C2098       C  0.67191880  0.55517222  0.89129426    -0.13200
C2099       C  0.81467525  0.58541302  0.95321602    -0.11600
C2100       C  0.83002169  0.60807047  0.94275112    -0.13200
C2101       C  0.69120412  0.44748263  0.08373762    -0.11600
C2102       C  0.67569231  0.43126150  0.10171260    -0.13200
C2103       C  0.83121274  0.39169533  0.06594179    -0.11600
C2104       C  0.81692761  0.41335623  0.05237584    -0.13200
C2105       C  0.68733645  0.54736903  0.08484262    -0.11600
C2106       C  0.67193455  0.55999736  0.10623259    -0.13200
C2107       C  0.80914226  0.58422216  0.05605768    -0.11600
C2108       C  0.82208495  0.60296419  0.07402112    -0.13200
C2109       C  0.44360541  0.91731109  0.69201041    -0.11600
C2110       C  0.42645948  0.89909719  0.67739472    -0.13200
C2111       C  0.41513404  0.95612657  0.81415018    -0.11600
C2112       C  0.39310743  0.94359962  0.82887194    -0.13200
C2113       C  0.55851535  0.88895415  0.67247193    -0.11600
C2114       C  0.54695843  0.91164453  0.68703218    -0.13200
C2115       C  0.58999165  0.95539551  0.80880301    -0.11600
C2116       C  0.61169247  0.94334341  0.82428059    -0.13200
C2117       C  0.44476769  0.08219661  0.68460942    -0.11600
C2118       C  0.42625175  0.09866171  0.66968599    -0.13200
C2119       C  0.42215445  0.06106725  0.80947927    -0.11600
C2120       C  0.40516721  0.07837033  0.82533449    -0.13200
C2121       C  0.55196906  0.08670453  0.68076502    -0.11600
C2122       C  0.56521355  0.10903378  0.66739244    -0.13200
C2123       C  0.58796043  0.05844357  0.80243496    -0.11600
C2124       C  0.60537913  0.07574117  0.81778551    -0.13200
C2125       C  0.32713885  0.55617726  0.89067028    -0.11600
C2126       C  0.31059540  0.54446067  0.91170727    -0.13200
C2127       C  0.18438043  0.58761817  0.95387386    -0.11600
C2128       C  0.16879808  0.61037225  0.94375397    -0.13200
C2129       C  0.32217920  0.42893534  0.89592806    -0.11600
C2130       C  0.30592895  0.44480773  0.91384627    -0.13200
C2131       C  0.18008453  0.41248584  0.95412368    -0.11600
C2132       C  0.16558574  0.38966259  0.94346472    -0.13200
C2133       C  0.32221833  0.42911493  0.10030698    -0.11600
C2134       C  0.30811452  0.44521529  0.08113084    -0.13200
C2135       C  0.16817871  0.38887267  0.06272400    -0.11600
C2136       C  0.18283902  0.41055204  0.04948957    -0.13200
C2137       C  0.31224914  0.54581945  0.08418633    -0.11600
C2138       C  0.32847289  0.55866107  0.10513098    -0.13200
C2139       C  0.18754538  0.58136917  0.05175860    -0.11600
C2140       C  0.17347909  0.59985286  0.06873643    -0.13200
C2141       C  0.45103417  0.31201658  0.90831173    -0.11600
C2142       C  0.43852820  0.32691596  0.88639777    -0.13200
C2143       C  0.41440384  0.18719819  0.95315722    -0.11600
C2144       C  0.39208690  0.17187457  0.94233883    -0.13200
C2145       C  0.54986109  0.31082305  0.90732720    -0.11600
C2146       C  0.56230100  0.32452980  0.88482369    -0.13200
C2147       C  0.58903651  0.18890016  0.94981371    -0.11600
C2148       C  0.61069213  0.17336617  0.93728061    -0.13200
C2149       C  0.54874608  0.31904790  0.08153004    -0.11600
C2150       C  0.56172615  0.33231610  0.10400363    -0.13200
C2151       C  0.58483926  0.19488294  0.05358522    -0.11600
C2152       C  0.60191080  0.17857101  0.07043831    -0.13200
C2153       C  0.44677191  0.31552052  0.08255358    -0.11600
C2154       C  0.43300522  0.32867435  0.10475060    -0.13200
C2155       C  0.40132634  0.17579296  0.07014667    -0.11600
C2156       C  0.41857521  0.19134733  0.05285823    -0.13200
C2157       C  0.91203711  0.31377138  0.54437419    -0.11600
C2158       C  0.89062351  0.32920000  0.55705404    -0.13200
C2159       C  0.93209376  0.17556520  0.60182886    -0.11600
C2160       C  0.94768346  0.19094606  0.58281157    -0.13200
C2161       C  0.91566802  0.31033450  0.44693504    -0.11600
C2162       C  0.89694954  0.32565614  0.43149748    -0.13200
C2163       C  0.94064216  0.17002542  0.38949264    -0.11600
C2164       C  0.95286832  0.18501510  0.41138900    -0.13200
C2165       C  0.08306310  0.31227091  0.44474779    -0.11600
C2166       C  0.10053185  0.32787233  0.42802048    -0.13200
C2167       C  0.05864101  0.18791980  0.41769979    -0.11600
C2168       C  0.07658359  0.17262339  0.40081089    -0.13200
C2169       C  0.08628084  0.31610259  0.54528742    -0.11600
C2170       C  0.10809557  0.33142197  0.55742724    -0.13200
C2171       C  0.05283785  0.19242551  0.58283357    -0.11600
C2172       C  0.06951350  0.17736894  0.60099879    -0.13200
C2173       C  0.31249012  0.91676123  0.44836235    -0.11600
C2174       C  0.32673381  0.89766416  0.43185821    -0.13200
C2175       C  0.18901752  0.94977723  0.41302918    -0.11600
C2176       C  0.17471881  0.93684387  0.39107652    -0.13200
C2177       C  0.31305215  0.91345785  0.55072407    -0.11600
C2178       C  0.32798053  0.89110048  0.56278149    -0.13200
C2179       C  0.18738074  0.95052482  0.58750404    -0.11600
C2180       C  0.17282764  0.93778150  0.60960496    -0.13200
C2181       C  0.31153277  0.08917958  0.54613566    -0.11600
C2182       C  0.32611979  0.11178285  0.55753520    -0.13200
C2183       C  0.17237672  0.06491882  0.60893293    -0.11600
C2184       C  0.18679357  0.05218941  0.58673535    -0.13200
C2185       C  0.31186378  0.08835015  0.44808747    -0.11600
C2186       C  0.32694327  0.10969435  0.43466854    -0.13200
C2187       C  0.17439218  0.05773350  0.38733852    -0.11600
C2188       C  0.18820081  0.04669621  0.41059690    -0.13200
C2189       C  0.54674127  0.90685346  0.31342781    -0.11600
C2190       C  0.55855907  0.88481966  0.32852901    -0.13200
C2191       C  0.58387020  0.94275837  0.18846323    -0.11600
C2192       C  0.60303795  0.92746422  0.17338974    -0.13200
C2193       C  0.45125121  0.91114979  0.31477275    -0.11600
C2194       C  0.43876890  0.88973499  0.32984891    -0.13200
C2195       C  0.41542034  0.94641345  0.18954076    -0.11600
C2196       C  0.39722953  0.93052136  0.17395250    -0.13200
C2197       C  0.43137647  0.09957438  0.32234801    -0.11600
C2198       C  0.44850965  0.08106324  0.30819148    -0.13200
C2199       C  0.41538610  0.04638682  0.18674282    -0.11600
C2200       C  0.39409648  0.05993615  0.17188002    -0.13200
C2201       C  0.55606704  0.07832340  0.30936661    -0.11600
C2202       C  0.57230724  0.09701965  0.32430175    -0.13200
C2203       C  0.58860548  0.04482309  0.18734408    -0.11600
C2204       C  0.60933958  0.05953804  0.17262043    -0.13200
C2205       C  0.88964753  0.43728664  0.32924166    -0.11600
C2206       C  0.91135328  0.45086993  0.31502690    -0.13200
C2207       C  0.94781156  0.41586675  0.19280503    -0.11600
C2208       C  0.93221970  0.39618697  0.17852168    -0.13200
C2209       C  0.90807696  0.54899317  0.31316681    -0.11600
C2210       C  0.88567302  0.56131409  0.32698808    -0.13200
C2211       C  0.94678928  0.58821684  0.19002000    -0.11600
C2212       C  0.93427238  0.61032274  0.17570494    -0.13200
C2213       C  0.08115740  0.55366053  0.31365476    -0.11600
C2214       C  0.10112644  0.56925437  0.32744587    -0.13200
C2215       C  0.04925045  0.58902318  0.19126201    -0.11600
C2216       C  0.06430319  0.60949091  0.17672569    -0.13200
C2217       C  0.08666848  0.45444257  0.31396774    -0.11600
C2218       C  0.10919420  0.44205025  0.32815437    -0.13200
C2219       C  0.04991692  0.41779890  0.19128285    -0.11600
C2220       C  0.06525918  0.39846455  0.17610438    -0.13200
loop_ 
_geom_bond_atom_site_label_1 
_geom_bond_atom_site_label_2 
_geom_bond_distance 
_geom_bond_site_symmetry_2 
_ccdc_geom_bond_type 
O1            C9   1.266       .  A
O1          Co21   1.991   1_455  S
O2           C10   1.263       .  A
O2          Co22   1.988       .  S
O3           C11   1.270       .  A
O3          Co23   2.025       .  S
O4           C12   1.277       .  A
O4          Co24   2.054       .  S
O5           C11   1.260       .  A
O5          Co22   1.970   1_455  S
O6           C12   1.267       .  A
O6          Co21   1.989       .  S
O7           C10   1.270       .  A
O7          Co24   2.031       .  S
O8            C9   1.275       .  A
O8          Co23   2.051       .  S
C9         C2217   1.467       .  S
C10        C2209   1.456       .  S
C11        C2213   1.439       .  S
C12        C2206   1.467       .  S
O13          C26   1.271       .  A
O13         Co21   2.032       .  S
O14          C27   1.277       .  A
O14         Co22   2.057   1_455  S
O15          C28   1.261       .  A
O15         Co23   1.974       .  S
O16          C29   1.265       .  A
O16         Co24   1.990       .  S
O17          C29   1.272       .  A
O17         Co22   2.038       .  S
O18          C28   1.274       .  A
O18         Co21   2.045   1_455  S
O19          C26   1.260       .  A
O19         Co24   1.971       .  S
O20          C27   1.264       .  A
O20         Co23   1.986       .  S
Co21         O25   2.126       .  S
Co22         O25   2.116       .  S
Co23         O25   2.120   1_455  S
Co24         O25   2.117       .  S
C26        C2207   1.443       .  S
C27        C2215   1.469       .  S
C28        C2219   1.455       .  S
C29        C2211   1.462       .  S
O30          C38   1.259       .  A
O30         Co50   1.966   1_545  S
O31          C39   1.261       .  A
O31         Co51   1.983       .  S
O32          C40   1.272       .  A
O32         Co52   2.039       .  S
O33          C41   1.273       .  A
O33         Co53   2.044       .  S
O34          C40   1.257       .  A
O34         Co51   1.963   1_545  S
O35          C41   1.265       .  A
O35         Co50   1.992       .  S
O36          C39   1.273       .  A
O36         Co53   2.046       .  S
O37          C38   1.273       .  A
O37         Co52   2.040       .  S
C38        C2201   1.446       .  S
C39        C2193   1.461       .  S
C40        C2198   1.444       .  S
C41        C2189   1.464       .  S
O42          C55   1.269       .  A
O42         Co50   2.024       .  S
O43          C56   1.277       .  A
O43         Co51   2.057   1_545  S
O44          C57   1.264       .  A
O44         Co52   1.985       .  S
O45          C58   1.254       .  A
O45         Co53   1.957       .  S
O46          C58   1.269       .  A
O46         Co51   2.028       .  S
O47          C57   1.279       .  A
O47         Co50   2.063   1_545  S
O48          C55   1.255       .  A
O48         Co53   1.961       .  S
O49          C56   1.264       .  A
O49         Co52   1.986       .  S
Co50         O54   2.117       .  S
Co51         O54   2.117       .  S
Co52         O54   2.125   1_545  S
Co53         O54   2.105       .  S
C55        C2191   1.433       .  S
C56        C2199   1.467       .  S
C57        C2203   1.469       .  S
C58        C2195   1.431       .  S
O59          C67   1.270       .  A
O59         Co79   2.001       .  S
O60          C68   1.268       .  A
O60         Co80   1.997       .  S
O61          C69   1.275       .  A
O61         Co81   2.052   1_565  S
O62          C70   1.276       .  A
O62         Co82   2.054       .  S
O63          C69   1.268       .  A
O63         Co80   1.996       .  S
O64          C70   1.270       .  A
O64         Co79   2.007       .  S
O65          C68   1.276       .  A
O65         Co82   2.053   1_565  S
O66          C67   1.272       .  A
O66         Co81   2.037       .  S
C67        C2188   1.467       .  S
C68        C2179   1.475       .  S
C69        C2175   1.472       .  S
C70        C2184   1.484       .  S
O71          C84   1.274       .  A
O71         Co79   2.039       .  S
O72          C85   1.273       .  A
O72         Co80   2.039       .  S
O73          C86   1.266       .  A
O73         Co81   1.994       .  S
O74          C87   1.269       .  A
O74         Co82   2.005   1_565  S
O75          C87   1.276       .  A
O75         Co80   2.055       .  S
O76          C86   1.277       .  A
O76         Co79   2.062       .  S
O77          C84   1.267       .  A
O77         Co82   1.993       .  S
O78          C85   1.261       .  A
O78         Co81   1.974   1_565  S
Co79         O83   2.132       .  S
Co80         O83   2.133   1_565  S
Co81         O83   2.129       .  S
Co82         O83   2.129       .  S
C84        C2181   1.462       .  S
C85        C2173   1.451       .  S
C86        C2185   1.478       .  S
C87        C2177   1.482       .  S
O88          C96   1.265       .  A
O88        Co108   1.992   1_455  S
O89          C97   1.253       .  A
O89        Co109   1.956   1_655  S
O90          C98   1.270       .  A
O90        Co110   2.035       .  S
O91          C99   1.278       .  A
O91        Co111   2.062       .  S
O92          C98   1.253       .  A
O92        Co109   1.956       .  S
O93          C99   1.263       .  A
O93        Co108   1.983       .  S
O94          C97   1.267       .  A
O94        Co111   2.021       .  S
O95          C96   1.275       .  A
O95        Co110   2.051       .  S
C96        C2169   1.468       .  S
C97        C2161   1.428       .  S
C98        C2165   1.436       .  S
C99        C2157   1.469       .  S
O100        C113   1.274       .  A
O100       Co108   2.045       .  S
O101        C114   1.273       .  A
O101       Co109   2.049       .  S
O102        C115   1.255       .  A
O102       Co110   1.958       .  S
O103        C116   1.267       .  A
O103       Co111   1.997       .  S
O104        C116   1.274       .  A
O104       Co109   2.047   1_655  S
O105        C115   1.272       .  A
O105       Co108   2.039   1_455  S
O106        C113   1.260       .  A
O106       Co111   1.970       .  S
O107        C114   1.256       .  A
O107       Co110   1.966       .  S
Co108       O112   2.125   1_655  S
Co109       O112   2.108       .  S
Co110       O112   2.112       .  S
Co111       O112   2.120   1_655  S
C113       C2160   1.452       .  S
C114       C2167   1.452       .  S
C115       C2171   1.441       .  S
C116       C2164   1.469       .  S
O117        C125   1.268       .  A
O117       Co137   1.998   1_554  S
O118        C126   1.266       .  A
O118       Co138   1.992       .  S
O119        C127   1.273       .  A
O119       Co139   2.038       .  S
O120        C128   1.279       .  A
O120       Co140   2.058       .  S
O121        C127   1.268       .  A
O121       Co138   1.997   1_554  S
O122        C128   1.267       .  A
O122       Co137   1.990       .  S
O123        C126   1.272       .  A
O123       Co140   2.038       .  S
O124        C125   1.272       .  A
O124       Co139   2.044       .  S
C125       C2153   1.469       .  S
C126       C2145   1.462       .  S
C127       C2149   1.463       .  S
C128       C2141   1.473       .  S
O129        C142   1.272       .  A
O129       Co137   2.040       .  S
O130        C143   1.273       .  A
O130       Co138   2.046   1_554  S
O131        C144   1.256       .  A
O131       Co139   1.961       .  S
O132        C145   1.266       .  A
O132       Co140   1.995       .  S
O133        C145   1.278       .  A
O133       Co138   2.061       .  S
O134        C144   1.274       .  A
O134       Co137   2.049   1_554  S
O135        C142   1.262       .  A
O135       Co140   1.987       .  S
O136        C143   1.255       .  A
O136       Co139   1.961       .  S
Co137       O141   2.131       .  S
Co138       O141   2.130       .  S
Co139       O141   2.112   1_554  S
Co140       O141   2.125       .  S
C142       C2143   1.460       .  S
C143       C2151   1.447       .  S
C144       C2156   1.447       .  S
C145       C2147   1.477       .  S
O146        C154   1.266       .  A
O146       Co166   1.993   1_554  S
O147        C155   1.256       .  A
O147       Co167   1.964       .  S
O148        C156   1.267       .  A
O148       Co168   2.018       .  S
O149        C157   1.278       .  A
O149       Co169   2.060       .  S
O150        C156   1.257       .  A
O150       Co167   1.963   1_554  S
O151        C157   1.262       .  A
O151       Co166   1.986       .  S
O152        C155   1.273       .  A
O152       Co169   2.044       .  S
O153        C154   1.280       .  A
O153       Co168   2.071       .  S
C154       C2137   1.480       .  S
C155       C2130   1.448       .  S
C156       C2134   1.431       .  S
C157       C2126   1.473       .  S
O158        C171   1.276       .  A
O158       Co166   2.056       .  S
O159        C172   1.275       .  A
O159       Co167   2.055   1_554  S
O160        C173   1.256       .  A
O160       Co168   1.957       .  S
O161        C174   1.265       .  A
O161       Co169   1.990       .  S
O162        C174   1.271       .  A
O162       Co167   2.032       .  S
O163        C173   1.272       .  A
O163       Co166   2.031   1_554  S
O164        C171   1.264       .  A
O164       Co169   1.993       .  S
O165        C172   1.266       .  A
O165       Co168   1.998       .  S
Co166       O170   2.125       .  S
Co167       O170   2.109       .  S
Co168       O170   2.119   1_554  S
Co169       O170   2.125       .  S
C171       C2127   1.473       .  S
C172       C2136   1.475       .  S
C173       C2139   1.434       .  S
C174       C2131   1.455       .  S
O175        C183   1.271       .  A
O175       Co195   2.038       .  S
O176        C184   1.273       .  A
O176       Co196   2.044       .  S
O177        C185   1.267       .  A
O177       Co197   1.994   1_565  S
O178        C186   1.253       .  A
O178       Co198   1.958       .  S
O179        C185   1.277       .  A
O179       Co196   2.053       .  S
O180        C186   1.272       .  A
O180       Co195   2.044       .  S
O181        C184   1.256       .  A
O181       Co198   1.963   1_565  S
O182        C183   1.268       .  A
O182       Co197   1.999       .  S
C183       C2121   1.465       .  S
C184       C2109   1.448       .  S
C185       C2114   1.471       .  S
C186       C2117   1.441       .  S
O187        C200   1.254       .  A
O187       Co195   1.961       .  S
O188        C201   1.263       .  A
O188       Co196   1.986       .  S
O189        C202   1.274       .  A
O189       Co197   2.047       .  S
O190        C203   1.273       .  A
O190       Co198   2.045   1_565  S
O191        C203   1.267       .  A
O191       Co196   1.999       .  S
O192        C202   1.255       .  A
O192       Co195   1.958       .  S
O193        C200   1.273       .  A
O193       Co198   2.050       .  S
O194        C201   1.276       .  A
O194       Co197   2.049   1_565  S
Co195       O199   2.115       .  S
Co196       O199   2.124   1_565  S
Co197       O199   2.131       .  S
Co198       O199   2.115       .  S
C200       C2119   1.449       .  S
C201       C2115   1.466       .  S
C202       C2123   1.445       .  S
C203       C2111   1.472       .  S
O204        C212   1.276       .  A
O204       Co224   2.058       .  S
O205        C213   1.274       .  A
O205       Co225   2.049       .  S
O206        C214   1.263       .  A
O206       Co226   1.987       .  S
O207        C215   1.254       .  A
O207       Co227   1.959       .  S
O208        C214   1.277       .  A
O208       Co225   2.057       .  S
O209        C215   1.269       .  A
O209       Co224   2.028       .  S
O210        C213   1.257       .  A
O210       Co227   1.966   1_556  S
O211        C212   1.265       .  A
O211       Co226   1.990   1_554  S
C212       C2105   1.471       .  S
C213       C2093   1.451       .  S
C214       C2097   1.470       .  S
C215       C2101   1.434       .  S
O216        C229   1.266       .  A
O216       Co224   1.992       .  S
O217        C230   1.266       .  A
O217       Co225   1.992       .  S
O218        C231   1.273       .  A
O218       Co226   2.044   1_554  S
O219        C232   1.271       .  A
O219       Co227   2.038   1_556  S
O220        C232   1.267       .  A
O220       Co225   2.000       .  S
O221        C231   1.261       .  A
O221       Co224   1.972       .  S
O222        C229   1.275       .  A
O222       Co227   2.050       .  S
O223        C230   1.276       .  A
O223       Co226   2.048       .  S
Co224       O228   2.126   1_554  S
Co225       O228   2.128       .  S
Co226       O228   2.126       .  S
Co227       O228   2.111   1_554  S
C229       C2104   1.469       .  S
C230       C2099   1.468       .  S
C231       C2107   1.455       .  S
C232       C2096   1.468       .  S
O233        C241   1.272       .  A
O233       Co253   2.035       .  S
O234        C242   1.274       .  A
O234       Co254   2.043       .  S
O235        C243   1.266       .  A
O235       Co255   1.994   1_655  S
O236        C244   1.263       .  A
O236       Co256   1.987       .  S
O237        C243   1.276       .  A
O237       Co254   2.051       .  S
O238        C244   1.275       .  A
O238       Co253   2.053       .  S
O239        C242   1.258       .  A
O239       Co256   1.965   1_655  S
O240        C241   1.266       .  A
O240       Co255   1.989       .  S
C241       C2090   1.457       .  S
C242       C2077   1.448       .  S
C243       C2082   1.472       .  S
C244       C2085   1.468       .  S
O245        C258   1.256       .  A
O245       Co253   1.965       .  S
O246        C259   1.264       .  A
O246       Co254   1.991       .  S
O247        C260   1.275       .  A
O247       Co255   2.051       .  S
O248        C261   1.275       .  A
O248       Co256   2.053   1_655  S
O249        C261   1.266       .  A
O249       Co254   1.993       .  S
O250        C260   1.257       .  A
O250       Co253   1.966       .  S
O251        C258   1.270       .  A
O251       Co256   2.032       .  S
O252        C259   1.275       .  A
O252       Co255   2.049   1_655  S
Co253       O257   2.113       .  S
Co254       O257   2.125   1_655  S
Co255       O257   2.125       .  S
Co256       O257   2.120       .  S
C258       C2088   1.441       .  S
C259       C2084   1.470       .  S
C260       C2091   1.453       .  S
C261       C2079   1.470       .  S
O262        C270   1.250       .  A
O262       Co282   1.950   1_455  S
O263        C271   1.252       .  A
O263       Co283   1.952       .  S
O264        C272   1.272       .  A
O264       Co284   2.046       .  S
O265        C273   1.271       .  A
O265       Co285   2.042       .  S
O266        C272   1.252       .  A
O266       Co283   1.953   1_455  S
O267        C273   1.251       .  A
O267       Co282   1.953       .  S
O268        C271   1.272       .  A
O268       Co285   2.045       .  S
O269        C270   1.271       .  A
O269       Co284   2.042       .  S
C270       C2073   1.435       .  S
C271       C2066   1.439       .  S
C272       C2069   1.441       .  S
C273       C2062   1.437       .  S
O274        C287   1.271       .  A
O274       Co282   2.039       .  S
O275        C288   1.271       .  A
O275       Co283   2.039   1_455  S
O276        C289   1.253       .  A
O276       Co284   1.958       .  S
O277        C290   1.254       .  A
O277       Co285   1.959       .  S
O278        C290   1.271       .  A
O278       Co283   2.040       .  S
O279        C289   1.273       .  A
O279       Co282   2.050   1_455  S
O280        C287   1.252       .  A
O280       Co285   1.953       .  S
O281        C288   1.251       .  A
O281       Co284   1.953       .  S
Co282       O286   2.106       .  S
Co283       O286   2.105       .  S
Co284       O286   2.109   1_455  S
Co285       O286   2.109       .  S
C287       C2063   1.435       .  S
C288       C2071   1.435       .  S
C289       C2075   1.446       .  S
C290       C2067   1.439       .  S
O291        C299   1.252       .  A
O291       Co311   1.950       .  S
O292        C300   1.256       .  A
O292       Co312   1.968   1_556  S
O293        C301   1.274       .  A
O293       Co313   2.047       .  S
O294        C302   1.273       .  A
O294       Co314   2.050       .  S
O295        C301   1.252       .  A
O295       Co312   1.952       .  S
O296        C302   1.253       .  A
O296       Co311   1.960   1_556  S
O297        C300   1.275       .  A
O297       Co314   2.059       .  S
O298        C299   1.272       .  A
O298       Co313   2.039       .  S
C299       C2057   1.433       .  S
C300       C2049   1.460       .  S
C301       C2053   1.441       .  S
C302       C2045   1.449       .  S
O303        C316   1.271       .  A
O303       Co311   2.038   1_556  S
O304        C317   1.274       .  A
O304       Co312   2.045       .  S
O305        C318   1.265       .  A
O305       Co313   1.991       .  S
O306        C319   1.250       .  A
O306       Co314   1.951       .  S
O307        C319   1.270       .  A
O307       Co312   2.034   1_556  S
O308        C318   1.273       .  A
O308       Co311   2.045       .  S
O309        C316   1.251       .  A
O309       Co314   1.953       .  S
O310        C317   1.263       .  A
O310       Co313   1.983       .  S
Co311       O315   2.106       .  S
Co312       O315   2.109       .  S
Co313       O315   2.126       .  S
Co314       O315   2.107   1_556  S
C316       C2047   1.434       .  S
C317       C2056   1.460       .  S
C318       C2059   1.464       .  S
C319       C2051   1.431       .  S
O320        C328   1.260       .  A
O320       Co340   1.982       .  S
O321        C329   1.267       .  A
O321       Co341   1.979       .  S
O322        C330   1.287       .  A
O322       Co342   2.097       .  S
O323        C331   1.273       .  A
O323       Co343   2.042       .  S
O324        C330   1.269       .  A
O324       Co341   1.908       .  S
O325        C331   1.253       .  A
O325       Co340   1.955       .  S
O326        C329   1.279       .  A
O326       Co343   2.049       .  S
O327        C328   1.264       .  A
O327       Co342   2.006       .  S
C328       C2040   1.436       .  S
C329       C2042   1.460       .  S
C330       C2037   1.436       .  S
C331       C2044   1.446       .  S
O332        C345   1.279       .  A
O332       Co340   2.039       .  S
O333        C346   1.292       .  A
O333       Co341   2.095       .  S
O334        C347   1.278       .  A
O334       Co342   2.000       .  S
O335        C348   1.266       .  A
O335       Co343   2.003       .  S
O336        C348   1.271       .  A
O336       Co341   2.030       .  S
O337        C347   1.275       .  A
O337       Co340   2.026       .  S
O338        C345   1.267       .  A
O338       Co343   1.979       .  S
O339        C346   1.271       .  A
O339       Co342   1.901       .  S
Co340       O344   2.034       .  S
Co341       O344   2.014       .  S
Co342       O344   2.019       .  S
Co343       O344   2.065       .  S
C345       C2036   1.455       .  S
C346       C2065   1.439       .  S
C347       C2158   1.466       .  S
C348       C2034   1.468       .  S
O349        C357   1.280       .  A
O349       Co369   2.044       .  S
O350        C358   1.260       .  A
O350       Co370   1.999       .  S
O351        C359   1.272       .  A
O351       Co371   1.906       .  S
O352        C360   1.267       .  A
O352       Co372   1.971       .  S
O353        C359   1.297       .  A
O353       Co370   2.110       .  S
O354        C360   1.271       .  A
O354       Co369   2.006       .  S
O355        C358   1.257       .  A
O355       Co372   1.983       .  S
O356        C357   1.275       .  A
O356       Co371   1.989       .  S
C357       C2146   1.461       .  S
C358       C2025   1.436       .  S
C359       C2094   1.450       .  S
C360       C2024   1.427       .  S
O361        C374   1.258       .  A
O361       Co369   1.966       .  S
O362        C375   1.262       .  A
O362       Co370   1.886       .  S
O363        C376   1.265       .  A
O363       Co371   2.009       .  S
O364        C377   1.284       .  A
O364       Co372   2.061       .  S
O365        C377   1.265       .  A
O365       Co370   1.971       .  S
O366        C376   1.252       .  A
O366       Co369   1.956       .  S
O367        C374   1.267       .  A
O367       Co372   2.018       .  S
O368        C375   1.291       .  A
O368       Co371   2.104       .  S
Co369       O373   2.017       .  S
Co370       O373   2.001       .  S
Co371       O373   2.019       .  S
Co372       O373   2.051       .  S
C374       C2031   1.434       .  S
C375       C2027   1.418       .  S
C376       C2029   1.420       .  S
C377       C2041   1.459       .  S
O378        C386   1.260       .  A
O378       Co398   1.987       .  S
O379        C387   1.267       .  A
O379       Co399   1.974       .  S
O380        C388   1.294       .  A
O380       Co400   2.115       .  S
O381        C389   1.273       .  A
O381       Co401   2.029       .  S
O382        C388   1.264       .  A
O382       Co399   1.891       .  S
O383        C389   1.257       .  A
O383       Co398   1.955       .  S
O384        C387   1.276       .  A
O384       Co401   2.038       .  S
O385        C386   1.262       .  A
O385       Co400   2.004       .  S
C386       C2019   1.439       .  S
C387       C2043   1.449       .  S
C388       C2017   1.430       .  S
C389       C2032   1.433       .  S
O390        C403   1.275       .  A
O390       Co398   2.027       .  S
O391        C404   1.295       .  A
O391       Co399   2.109       .  S
O392        C405   1.275       .  A
O392       Co400   1.994       .  S
O393        C406   1.264       .  A
O393       Co401   1.995       .  S
O394        C406   1.263       .  A
O394       Co399   2.003       .  S
O395        C405   1.278       .  A
O395       Co398   2.035       .  S
O396        C403   1.265       .  A
O396       Co401   1.973       .  S
O397        C404   1.266       .  A
O397       Co400   1.883       .  S
Co398       O402   2.028       .  S
Co399       O402   1.996       .  S
Co400       O402   2.004       .  S
Co401       O402   2.055       .  S
C403       C2013   1.444       .  S
C404       C2021   1.430       .  S
C405       C2122   1.464       .  S
C406       C2015   1.445       .  S
O407        C415   1.263       .  A
O407       Co427   1.891       .  S
O408        C416   1.254       .  A
O408       Co428   1.959       .  S
O409        C417   1.261       .  A
O409       Co429   1.995       .  S
O410        C418   1.282       .  A
O410       Co430   2.065       .  S
O411        C417   1.259       .  A
O411       Co428   1.981       .  S
O412        C418   1.265       .  A
O412       Co427   1.983       .  S
O413        C416   1.271       .  A
O413       Co430   2.035       .  S
O414        C415   1.295       .  A
O414       Co429   2.125       .  S
C415       C2039   1.436       .  S
C416       C2009   1.445       .  S
C417       C2018   1.430       .  S
C418       C2011   1.471       .  S
O419        C432   1.265       .  A
O419       Co427   2.013       .  S
O420        C433   1.275       .  A
O420       Co428   2.028       .  S
O421        C434   1.268       .  A
O421       Co429   1.895       .  S
O422        C435   1.269       .  A
O422       Co430   1.989       .  S
O423        C435   1.279       .  A
O423       Co428   2.042       .  S
O424        C434   1.300       .  A
O424       Co427   2.125       .  S
O425        C432   1.264       .  A
O425       Co430   1.999       .  S
O426        C433   1.280       .  A
O426       Co429   2.006       .  S
Co427       O431   2.015       .  S
Co428       O431   2.038       .  S
Co429       O431   2.019       .  S
Co430       O431   2.071       .  S
C432       C2003   1.456       .  S
C433       C2007   1.467       .  S
C434       C2159   1.451       .  S
C435       C2005   1.462       .  S
O436        C444   1.276       .  A
O436       Co456   2.033       .  S
O437        C445   1.263       .  A
O437       Co457   2.002       .  S
O438        C446   1.273       .  A
O438       Co458   1.898       .  S
O439        C447   1.263       .  A
O439       Co459   1.964       .  S
O440        C446   1.297       .  A
O440       Co457   2.113       .  S
O441        C447   1.275       .  A
O441       Co456   2.024       .  S
O442        C445   1.262       .  A
O442       Co459   1.986       .  S
O443        C444   1.281       .  A
O443       Co458   2.013       .  S
C444       C2148   1.475       .  S
C445       C1999   1.437       .  S
C446       C2124   1.445       .  S
C447       C1997   1.437       .  S
O448        C461   1.250       .  A
O448       Co456   1.946       .  S
O449        C462   1.263       .  A
O449       Co457   1.893       .  S
O450        C463   1.264       .  A
O450       Co458   2.005       .  S
O451        C464   1.275       .  A
O451       Co459   2.036       .  S
O452        C464   1.267       .  A
O452       Co457   1.975       .  S
O453        C463   1.252       .  A
O453       Co456   1.956       .  S
O454        C461   1.272       .  A
O454       Co459   2.040       .  S
O455        C462   1.295       .  A
O455       Co458   2.127       .  S
Co456       O460   2.017       .  S
Co457       O460   1.996       .  S
Co458       O460   2.023       .  S
Co459       O460   2.064       .  S
C461       C2001   1.436       .  S
C462       C2020   1.439       .  S
C463       C2030   1.419       .  S
C464       C2010   1.447       .  S
O465        C473   1.261       .  A
O465       Co485   1.970       .  S
O466        C474   1.270       .  A
O466       Co486   1.983       .  S
O467        C475   1.287       .  A
O467       Co487   2.103       .  S
O468        C476   1.269       .  A
O468       Co488   2.019       .  S
O469        C475   1.269       .  A
O469       Co486   1.904       .  S
O470        C476   1.264       .  A
O470       Co485   1.976       .  S
O471        C474   1.286       .  A
O471       Co488   2.064       .  S
O472        C473   1.264       .  A
O472       Co487   1.997       .  S
C473       C2028   1.418       .  S
C474       C2012   1.471       .  S
C475       C2038   1.436       .  S
C476       C2002   1.441       .  S
O477        C490   1.267       .  A
O477       Co485   1.993       .  S
O478        C491   1.297       .  A
O478       Co486   2.118       .  S
O479        C492   1.273       .  A
O479       Co487   1.990       .  S
O480        C493   1.263       .  A
O480       Co488   1.995       .  S
O481        C493   1.268       .  A
O481       Co486   2.021       .  S
O482        C492   1.279       .  A
O482       Co485   2.045       .  S
O483        C490   1.271       .  A
O483       Co488   1.985       .  S
O484        C491   1.270       .  A
O484       Co487   1.891       .  S
Co485       O489   2.030       .  S
Co486       O489   2.003       .  S
Co487       O489   2.002       .  S
Co488       O489   2.045       .  S
C490       C1993   1.428       .  S
C491       C2068   1.438       .  S
C492       C2095   1.467       .  S
C493       C1996   1.459       .  S
O494        C502   1.250       .  A
O494       Co514   1.949       .  S
O495        C503   1.270       .  A
O495       Co515   1.978       .  S
O496        C504   1.288       .  A
O496       Co516   2.096       .  S
O497        C505   1.274       .  A
O497       Co517   2.041       .  S
O498        C504   1.269       .  A
O498       Co515   1.906       .  S
O499        C505   1.256       .  A
O499       Co514   1.958       .  S
O500        C503   1.275       .  A
O500       Co517   2.027       .  S
O501        C502   1.266       .  A
O501       Co516   2.019       .  S
C502       C1988   1.421       .  S
C503       C1991   1.445       .  S
C504       C1985   1.436       .  S
C505       C1989   1.442       .  S
O506        C519   1.268       .  A
O506       Co514   1.996       .  S
O507        C520   1.293       .  A
O507       Co515   2.105       .  S
O508        C521   1.275       .  A
O508       Co516   1.987       .  S
O509        C522   1.264       .  A
O509       Co517   1.990       .  S
O510        C522   1.267       .  A
O510       Co515   2.010       .  S
O511        C521   1.280       .  A
O511       Co514   2.046       .  S
O512        C519   1.265       .  A
O512       Co517   1.964       .  S
O513        C520   1.272       .  A
O513       Co516   1.900       .  S
Co514       O518   2.012       .  S
Co515       O518   1.994       .  S
Co516       O518   2.018       .  S
Co517       O518   2.047       .  S
C519       C1984   1.417       .  S
C520       C2118   1.441       .  S
C521       C2182   1.461       .  S
C522       C2014   1.445       .  S
O523        C531   1.276       .  A
O523       Co543   2.032       .  S
O524        C532   1.267       .  A
O524       Co544   2.016       .  S
O525        C533   1.271       .  A
O525       Co545   1.899       .  S
O526        C534   1.270       .  A
O526       Co546   1.986       .  S
O527        C533   1.294       .  A
O527       Co544   2.105       .  S
O528        C534   1.276       .  A
O528       Co543   2.028       .  S
O529        C532   1.263       .  A
O529       Co546   1.995       .  S
O530        C531   1.278       .  A
O530       Co545   1.998       .  S
C531       C2170   1.466       .  S
C532       C1973   1.453       .  S
C533       C2070   1.440       .  S
C534       C1975   1.451       .  S
O535        C548   1.259       .  A
O535       Co543   1.968       .  S
O536        C549   1.268       .  A
O536       Co544   1.909       .  S
O537        C550   1.263       .  A
O537       Co545   1.996       .  S
O538        C551   1.284       .  A
O538       Co546   2.062       .  S
O539        C551   1.266       .  A
O539       Co544   1.974       .  S
O540        C550   1.260       .  A
O540       Co543   1.978       .  S
O541        C548   1.269       .  A
O541       Co546   2.027       .  S
O542        C549   1.288       .  A
O542       Co545   2.106       .  S
Co543       O547   2.030       .  S
Co544       O547   2.013       .  S
Co545       O547   2.015       .  S
Co546       O547   2.057       .  S
C548       C1990   1.443       .  S
C549       C1977   1.439       .  S
C550       C1979   1.427       .  S
C551       C1981   1.463       .  S
O552        C560   1.249       .  A
O552       Co572   1.953       .  S
O553        C561   1.267       .  A
O553       Co573   1.984       .  S
O554        C562   1.295       .  A
O554       Co574   2.115       .  S
O555        C563   1.272       .  A
O555       Co575   2.042       .  S
O556        C562   1.264       .  A
O556       Co573   1.882       .  S
O557        C563   1.251       .  A
O557       Co572   1.951       .  S
O558        C561   1.279       .  A
O558       Co575   2.050       .  S
O559        C560   1.261       .  A
O559       Co574   2.007       .  S
C560       C1969   1.420       .  S
C561       C1982   1.463       .  S
C562       C1971   1.422       .  S
C563       C1992   1.442       .  S
O564        C577   1.274       .  A
O564       Co572   2.017       .  S
O565        C578   1.298       .  A
O565       Co573   2.116       .  S
O566        C579   1.280       .  A
O566       Co574   2.007       .  S
O567        C580   1.260       .  A
O567       Co575   1.990       .  S
O568        C580   1.262       .  A
O568       Co573   2.004       .  S
O569        C579   1.277       .  A
O569       Co572   2.038       .  S
O570        C577   1.262       .  A
O570       Co575   1.960       .  S
O571        C578   1.270       .  A
O571       Co574   1.896       .  S
Co572       O576   2.022       .  S
Co573       O576   2.003       .  S
Co574       O576   2.026       .  S
Co575       O576   2.063       .  S
C577       C2023   1.427       .  S
C578       C2129   1.447       .  S
C579       C2142   1.471       .  S
C580       C1968   1.444       .  S
O581        C589   1.278       .  A
O581       Co601   2.035       .  S
O582        C590   1.268       .  A
O582       Co602   2.022       .  S
O583        C591   1.269       .  A
O583       Co603   1.896       .  S
O584        C592   1.270       .  A
O584       Co604   1.985       .  S
O585        C591   1.292       .  A
O585       Co602   2.102       .  S
O586        C592   1.269       .  A
O586       Co601   2.004       .  S
O587        C590   1.264       .  A
O587       Co604   1.996       .  S
O588        C589   1.272       .  A
O588       Co603   1.981       .  S
C589       C2132   1.453       .  S
C590       C1995   1.459       .  S
C591       C2072   1.435       .  S
C592       C1961   1.436       .  S
O593        C606   1.262       .  A
O593       Co601   1.972       .  S
O594        C607   1.268       .  A
O594       Co602   1.910       .  S
O595        C608   1.264       .  A
O595       Co603   2.002       .  S
O596        C609   1.283       .  A
O596       Co604   2.052       .  S
O597        C609   1.268       .  A
O597       Co602   1.974       .  S
O598        C608   1.260       .  A
O598       Co601   1.971       .  S
O599        C606   1.270       .  A
O599       Co604   2.027       .  S
O600        C607   1.287       .  A
O600       Co603   2.099       .  S
Co601       O605   2.028       .  S
Co602       O605   2.006       .  S
Co603       O605   2.009       .  S
Co604       O605   2.046       .  S
C606       C1964   1.445       .  S
C607       C1978   1.440       .  S
C608       C1972   1.422       .  S
C609       C1966   1.459       .  S
O610        C618   1.246       .  A
O610       Co630   1.950       .  S
O611        C619   1.263       .  A
O611       Co631   1.980       .  S
O612        C620   1.293       .  A
O612       Co632   2.108       .  S
O613        C621   1.274       .  A
O613       Co633   2.049       .  S
O614        C620   1.263       .  A
O614       Co631   1.891       .  S
O615        C621   1.249       .  A
O615       Co630   1.954       .  S
O616        C619   1.277       .  A
O616       Co633   2.047       .  S
O617        C618   1.260       .  A
O617       Co632   2.012       .  S
C618       C1987   1.421       .  S
C619       C1965   1.459       .  S
C620       C1980   1.427       .  S
C621       C1959   1.449       .  S
O622        C635   1.274       .  A
O622       Co630   2.021       .  S
O623        C636   1.296       .  A
O623       Co631   2.102       .  S
O624        C637   1.279       .  A
O624       Co632   2.008       .  S
O625        C638   1.260       .  A
O625       Co633   1.993       .  S
O626        C638   1.265       .  A
O626       Co631   2.019       .  S
O627        C637   1.280       .  A
O627       Co630   2.052       .  S
O628        C635   1.261       .  A
O628       Co633   1.959       .  S
O629        C636   1.270       .  A
O629       Co632   1.895       .  S
Co630       O634   2.023       .  S
Co631       O634   2.011       .  S
Co632       O634   2.036       .  S
Co633       O634   2.071       .  S
C635       C1957   1.434       .  S
C636       C2172   1.441       .  S
C637       C2183   1.483       .  S
C638       C2004   1.456       .  S
O639        C647   1.249       .  A
O639       Co659   1.948       .  S
O640        C648   1.271       .  A
O640       Co660   1.984       .  S
O641        C649   1.288       .  A
O641       Co661   2.097       .  S
O642        C650   1.273       .  A
O642       Co662   2.044       .  S
O643        C649   1.269       .  A
O643       Co660   1.905       .  S
O644        C650   1.252       .  A
O644       Co659   1.950       .  S
O645        C648   1.276       .  A
O645       Co662   2.032       .  S
O646        C647   1.265       .  A
O646       Co661   2.018       .  S
C647       C1970   1.419       .  S
C648       C1960   1.451       .  S
C649       C1986   1.437       .  S
C650       C1963   1.442       .  S
O651        C664   1.271       .  A
O651       Co659   2.013       .  S
O652        C665   1.295       .  A
O652       Co660   2.111       .  S
O653        C666   1.273       .  A
O653       Co661   1.986       .  S
O654        C667   1.259       .  A
O654       Co662   1.976       .  S
O655        C667   1.267       .  A
O655       Co660   2.011       .  S
O656        C666   1.277       .  A
O656       Co659   2.035       .  S
O657        C664   1.261       .  A
O657       Co662   1.961       .  S
O658        C665   1.271       .  A
O658       Co661   1.905       .  S
Co659       O663   2.015       .  S
Co660       O663   2.004       .  S
Co661       O663   2.023       .  S
Co662       O663   2.050       .  S
C664       C1953   1.428       .  S
C665       C2120   1.448       .  S
C666       C2144   1.457       .  S
C667       C1956   1.436       .  S
O668        C676   1.280       .  A
O668       Co688   2.046       .  S
O669        C677   1.275       .  A
O669       Co689   2.035       .  S
O670        C678   1.270       .  A
O670       Co690   1.897       .  S
O671        C679   1.263       .  A
O671       Co691   1.965       .  S
O672        C678   1.298       .  A
O672       Co689   2.115       .  S
O673        C679   1.271       .  A
O673       Co688   2.011       .  S
O674        C677   1.274       .  A
O674       Co691   2.020       .  S
O675        C676   1.278       .  A
O675       Co690   1.996       .  S
C676       C2113   1.469       .  S
C677       C1941   1.481       .  S
C678       C1947   1.447       .  S
C679       C1939   1.429       .  S
O680        C693   1.248       .  A
O680       Co688   1.943       .  S
O681        C694   1.273       .  A
O681       Co689   1.907       .  S
O682        C695   1.264       .  A
O682       Co690   2.027       .  S
O683        C696   1.269       .  A
O683       Co691   2.012       .  S
O684        C696   1.273       .  A
O684       Co689   1.999       .  S
O685        C695   1.247       .  A
O685       Co688   1.952       .  S
O686        C693   1.283       .  A
O686       Co691   2.077       .  S
O687        C694   1.287       .  A
O687       Co690   2.087       .  S
Co688       O692   2.027       .  S
Co689       O692   2.008       .  S
Co690       O692   2.024       .  S
Co691       O692   2.066       .  S
C693       C1950   1.455       .  S
C694       C1945   1.436       .  S
C695       C1943   1.431       .  S
C696       C1952   1.453       .  S
O697        C705   1.278       .  A
O697       Co717   2.040       .  S
O698        C706   1.274       .  A
O698       Co718   2.032       .  S
O699        C707   1.271       .  A
O699       Co719   1.896       .  S
O700        C708   1.265       .  A
O700       Co720   1.978       .  S
O701        C707   1.293       .  A
O701       Co718   2.099       .  S
O702        C708   1.272       .  A
O702       Co717   2.019       .  S
O703        C706   1.269       .  A
O703       Co720   2.003       .  S
O704        C705   1.278       .  A
O704       Co719   1.998       .  S
C705       C2081   1.469       .  S
C706       C2033   1.468       .  S
C707       C2061   1.436       .  S
C708       C1931   1.443       .  S
O709        C722   1.248       .  A
O709       Co717   1.940       .  S
O710        C723   1.271       .  A
O710       Co718   1.914       .  S
O711        C724   1.262       .  A
O711       Co719   2.014       .  S
O712        C725   1.273       .  A
O712       Co720   2.030       .  S
O713        C725   1.272       .  A
O713       Co718   1.995       .  S
O714        C724   1.249       .  A
O714       Co717   1.952       .  S
O715        C722   1.279       .  A
O715       Co720   2.062       .  S
O716        C723   1.291       .  A
O716       Co719   2.105       .  S
Co717       O721   2.024       .  S
Co718       O721   2.009       .  S
Co719       O721   2.031       .  S
Co720       O721   2.066       .  S
C722       C1951   1.447       .  S
C723       C1933   1.450       .  S
C724       C1935   1.422       .  S
C725       C1937   1.461       .  S
O726        C734   1.277       .  A
O726       Co746   2.034       .  S
O727        C735   1.273       .  A
O727       Co747   2.027       .  S
O728        C736   1.271       .  A
O728       Co748   1.903       .  S
O729        C737   1.264       .  A
O729       Co749   1.970       .  S
O730        C736   1.296       .  A
O730       Co747   2.114       .  S
O731        C737   1.273       .  A
O731       Co746   2.018       .  S
O732        C735   1.272       .  A
O732       Co749   2.012       .  S
O733        C734   1.280       .  A
O733       Co748   2.002       .  S
C734       C2098   1.466       .  S
C735       C1925   1.471       .  S
C736       C2046   1.449       .  S
C737       C2026   1.436       .  S
O738        C751   1.250       .  A
O738       Co746   1.948       .  S
O739        C752   1.273       .  A
O739       Co747   1.907       .  S
O740        C753   1.263       .  A
O740       Co748   2.018       .  S
O741        C754   1.271       .  A
O741       Co749   2.020       .  S
O742        C754   1.274       .  A
O742       Co747   2.001       .  S
O743        C753   1.250       .  A
O743       Co746   1.954       .  S
O744        C751   1.282       .  A
O744       Co749   2.072       .  S
O745        C752   1.289       .  A
O745       Co748   2.098       .  S
Co746       O750   2.027       .  S
Co747       O750   2.010       .  S
Co748       O750   2.028       .  S
Co749       O750   2.064       .  S
C751       C1938   1.457       .  S
C752       C1929   1.440       .  S
C753       C1927   1.426       .  S
C754       C1949   1.459       .  S
O755        C763   1.277       .  A
O755       Co775   2.036       .  S
O756        C764   1.273       .  A
O756       Co776   2.027       .  S
O757        C765   1.272       .  A
O757       Co777   1.900       .  S
O758        C766   1.261       .  A
O758       Co778   1.959       .  S
O759        C765   1.295       .  A
O759       Co776   2.110       .  S
O760        C766   1.272       .  A
O760       Co775   2.017       .  S
O761        C764   1.269       .  A
O761       Co778   1.999       .  S
O762        C763   1.277       .  A
O762       Co777   1.995       .  S
C763       C2083   1.466       .  S
C764       C2006   1.462       .  S
C765       C1919   1.444       .  S
C766       C1918   1.429       .  S
O767        C780   1.250       .  A
O767       Co775   1.944       .  S
O768        C781   1.272       .  A
O768       Co776   1.907       .  S
O769        C782   1.264       .  A
O769       Co777   2.015       .  S
O770        C783   1.269       .  A
O770       Co778   2.015       .  S
O771        C783   1.273       .  A
O771       Co776   1.996       .  S
O772        C782   1.251       .  A
O772       Co775   1.955       .  S
O773        C780   1.279       .  A
O773       Co778   2.058       .  S
O774        C781   1.287       .  A
O774       Co777   2.091       .  S
Co775       O779   2.025       .  S
Co776       O779   2.004       .  S
Co777       O779   2.020       .  S
Co778       O779   2.057       .  S
C780       C1922   1.444       .  S
C781       C1946   1.436       .  S
C782       C1936   1.422       .  S
C783       C1923   1.452       .  S
O784        C792   1.277       .  A
O784       Co804   2.035       .  S
O785        C793   1.274       .  A
O785       Co805   2.036       .  S
O786        C794   1.271       .  A
O786       Co806   1.895       .  S
O787        C795   1.262       .  A
O787       Co807   1.968       .  S
O788        C794   1.292       .  A
O788       Co805   2.095       .  S
O789        C795   1.274       .  A
O789       Co804   2.025       .  S
O790        C793   1.271       .  A
O790       Co807   2.010       .  S
O791        C792   1.278       .  A
O791       Co806   1.996       .  S
C792       C2100   1.465       .  S
C793       C1913   1.476       .  S
C794       C2064   1.435       .  S
C795       C1911   1.441       .  S
O796        C809   1.246       .  A
O796       Co804   1.936       .  S
O797        C810   1.271       .  A
O797       Co805   1.914       .  S
O798        C811   1.262       .  A
O798       Co806   2.018       .  S
O799        C812   1.271       .  A
O799       Co807   2.017       .  S
O800        C812   1.271       .  A
O800       Co805   1.989       .  S
O801        C811   1.248       .  A
O801       Co804   1.953       .  S
O802        C809   1.280       .  A
O802       Co807   2.067       .  S
O803        C810   1.291       .  A
O803       Co806   2.103       .  S
Co804       O808   2.026       .  S
Co805       O808   2.007       .  S
Co806       O808   2.031       .  S
Co807       O808   2.067       .  S
C809       C1915   1.448       .  S
C810       C1934   1.450       .  S
C811       C1928   1.426       .  S
C812       C1921   1.448       .  S
O813        C821   1.276       .  A
O813       Co833   2.033       .  S
O814        C822   1.271       .  A
O814       Co834   2.024       .  S
O815        C823   1.272       .  A
O815       Co835   1.893       .  S
O816        C824   1.262       .  A
O816       Co836   1.964       .  S
O817        C823   1.294       .  A
O817       Co834   2.101       .  S
O818        C824   1.275       .  A
O818       Co833   2.025       .  S
O819        C822   1.271       .  A
O819       Co836   2.010       .  S
O820        C821   1.276       .  A
O820       Co835   1.996       .  S
C821       C2116   1.463       .  S
C822       C1910   1.468       .  S
C823       C2048   1.434       .  S
C824       C2000   1.437       .  S
O825        C838   1.247       .  A
O825       Co833   1.938       .  S
O826        C839   1.272       .  A
O826       Co834   1.910       .  S
O827        C840   1.265       .  A
O827       Co835   2.026       .  S
O828        C841   1.270       .  A
O828       Co836   2.015       .  S
O829        C841   1.274       .  A
O829       Co834   1.997       .  S
O830        C840   1.249       .  A
O830       Co833   1.954       .  S
O831        C838   1.279       .  A
O831       Co836   2.065       .  S
O832        C839   1.288       .  A
O832       Co835   2.093       .  S
Co833       O837   2.020       .  S
Co834       O837   2.000       .  S
Co835       O837   2.024       .  S
Co836       O837   2.060       .  S
C838       C1924   1.446       .  S
C839       C1930   1.440       .  S
C840       C1944   1.431       .  S
C841       C1916   1.454       .  S
O842        C850   1.278       .  A
O842       Co862   2.044       .  S
O843        C851   1.258       .  A
O843       Co863   1.996       .  S
O844        C852   1.271       .  A
O844       Co864   1.902       .  S
O845        C853   1.267       .  A
O845       Co865   1.980       .  S
O846        C852   1.297       .  A
O846       Co863   2.109       .  S
O847        C853   1.277       .  A
O847       Co862   2.034       .  S
O848        C851   1.254       .  A
O848       Co865   1.975       .  S
O849        C850   1.279       .  A
O849       Co864   2.008       .  S
C850       C2178   1.479       .  S
C851       C1940   1.429       .  S
C852       C2110   1.448       .  S
C853       C1899   1.454       .  S
O854        C867   1.252       .  A
O854       Co862   1.957       .  S
O855        C868   1.258       .  A
O855       Co863   1.886       .  S
O856        C869   1.262       .  A
O856       Co864   2.006       .  S
O857        C870   1.285       .  A
O857       Co865   2.078       .  S
O858        C870   1.263       .  A
O858       Co863   1.978       .  S
O859        C869   1.249       .  A
O859       Co862   1.952       .  S
O860        C867   1.266       .  A
O860       Co865   2.018       .  S
O861        C868   1.295       .  A
O861       Co864   2.122       .  S
Co862       O866   2.021       .  S
Co863       O866   2.011       .  S
Co864       O866   2.042       .  S
Co865       O866   2.069       .  S
C867       C1905   1.433       .  S
C868       C1903   1.428       .  S
C869       C1902   1.418       .  S
C870       C1908   1.474       .  S
O871        C879   1.252       .  A
O871       Co891   1.957       .  S
O872        C880   1.269       .  A
O872       Co892   1.996       .  S
O873        C881   1.288       .  A
O873       Co893   2.092       .  S
O874        C882   1.276       .  A
O874       Co894   2.055       .  S
O875        C881   1.271       .  A
O875       Co892   1.904       .  S
O876        C882   1.251       .  A
O876       Co891   1.954       .  S
O877        C880   1.278       .  A
O877       Co894   2.049       .  S
O878        C879   1.265       .  A
O878       Co893   2.020       .  S
C879       C1895   1.430       .  S
C880       C1907   1.474       .  S
C881       C1893   1.433       .  S
C882       C1897   1.452       .  S
O883        C896   1.275       .  A
O883       Co891   2.026       .  S
O884        C897   1.297       .  A
O884       Co892   2.111       .  S
O885        C898   1.280       .  A
O885       Co893   2.003       .  S
O886        C899   1.265       .  A
O886       Co894   2.001       .  S
O887        C899   1.273       .  A
O887       Co892   2.035       .  S
O888        C898   1.276       .  A
O888       Co891   2.031       .  S
O889        C896   1.265       .  A
O889       Co894   1.974       .  S
O890        C897   1.273       .  A
O890       Co893   1.915       .  S
Co891       O895   2.031       .  S
Co892       O895   2.021       .  S
Co893       O895   2.036       .  S
Co894       O895   2.070       .  S
C896       C1967   1.444       .  S
C897       C2050   1.460       .  S
C898       C2125   1.469       .  S
C899       C1926   1.471       .  S
O900        C908   1.258       .  A
O900       Co920   1.972       .  S
O901        C909   1.270       .  A
O901       Co921   1.980       .  S
O902        C910   1.288       .  A
O902       Co922   2.101       .  S
O903        C911   1.272       .  A
O903       Co923   2.025       .  S
O904        C910   1.271       .  A
O904       Co921   1.909       .  S
O905        C911   1.261       .  A
O905       Co920   1.964       .  S
O906        C909   1.278       .  A
O906       Co923   2.040       .  S
O907        C908   1.264       .  A
O907       Co922   2.003       .  S
C908       C1891   1.425       .  S
C909       C1898   1.454       .  S
C910       C1890   1.439       .  S
C911       C1906   1.434       .  S
O912        C925   1.270       .  A
O912       Co920   2.007       .  S
O913        C926   1.292       .  A
O913       Co921   2.105       .  S
O914        C927   1.274       .  A
O914       Co922   1.986       .  S
O915        C928   1.264       .  A
O915       Co923   1.990       .  S
O916        C928   1.270       .  A
O916       Co921   2.021       .  S
O917        C927   1.279       .  A
O917       Co920   2.037       .  S
O918        C925   1.267       .  A
O918       Co923   1.975       .  S
O919        C926   1.270       .  A
O919       Co922   1.895       .  S
Co920       O924   2.024       .  S
Co921       O924   2.000       .  S
Co922       O924   2.003       .  S
Co923       O924   2.044       .  S
C925       C1887   1.432       .  S
C926       C2074   1.435       .  S
C927       C2089   1.455       .  S
C928       C1974   1.453       .  S
O929        C937   1.280       .  A
O929       Co949   2.045       .  S
O930        C938   1.257       .  A
O930       Co950   1.991       .  S
O931        C939   1.272       .  A
O931       Co951   1.902       .  S
O932        C940   1.269       .  A
O932       Co952   1.975       .  S
O933        C939   1.298       .  A
O933       Co950   2.116       .  S
O934        C940   1.272       .  A
O934       Co949   2.010       .  S
O935        C938   1.258       .  A
O935       Co952   1.981       .  S
O936        C937   1.280       .  A
O936       Co951   2.006       .  S
C937       C2180   1.473       .  S
C938       C1917   1.429       .  S
C939       C2092   1.453       .  S
C940       C1958   1.434       .  S
O941        C954   1.257       .  A
O941       Co949   1.967       .  S
O942        C955   1.259       .  A
O942       Co950   1.884       .  S
O943        C956   1.263       .  A
O943       Co951   2.006       .  S
O944        C957   1.285       .  A
O944       Co952   2.068       .  S
O945        C957   1.264       .  A
O945       Co950   1.974       .  S
O946        C956   1.250       .  A
O946       Co949   1.951       .  S
O947        C954   1.264       .  A
O947       Co952   2.014       .  S
O948        C955   1.294       .  A
O948       Co951   2.118       .  S
Co949       O953   2.015       .  S
Co950       O953   2.002       .  S
Co951       O953   2.030       .  S
Co952       O953   2.060       .  S
C954       C1885   1.435       .  S
C955       C1892   1.425       .  S
C956       C1901   1.418       .  S
C957       C1883   1.463       .  S
O958        C966   1.250       .  A
O958       Co978   1.954       .  S
O959        C967   1.268       .  A
O959       Co979   1.989       .  S
O960        C968   1.287       .  A
O960       Co980   2.089       .  S
O961        C969   1.278       .  A
O961       Co981   2.067       .  S
O962        C968   1.270       .  A
O962       Co979   1.912       .  S
O963        C969   1.248       .  A
O963       Co978   1.950       .  S
O964        C967   1.277       .  A
O964       Co981   2.042       .  S
O965        C966   1.264       .  A
O965       Co980   2.022       .  S
C966       C1896   1.429       .  S
C967       C1884   1.464       .  S
C968       C1889   1.440       .  S
C969       C1881   1.460       .  S
O970        C983   1.274       .  A
O970       Co978   2.024       .  S
O971        C984   1.293       .  A
O971       Co979   2.095       .  S
O972        C985   1.277       .  A
O972       Co980   1.996       .  S
O973        C986   1.265       .  A
O973       Co981   2.004       .  S
O974        C986   1.273       .  A
O974       Co979   2.039       .  S
O975        C985   1.277       .  A
O975       Co978   2.039       .  S
O976        C983   1.263       .  A
O976       Co981   1.972       .  S
O977        C984   1.272       .  A
O977       Co980   1.909       .  S
Co978       O982   2.034       .  S
Co979       O982   2.021       .  S
Co980       O982   2.042       .  S
Co981       O982   2.074       .  S
C983       C1879   1.444       .  S
C984       C2076   1.446       .  S
C985       C2128   1.470       .  S
C986       C1914   1.476       .  S
O987        C995   1.257       .  A
O987      Co1007   1.969       .  S
O988        C996   1.274       .  A
O988      Co1008   1.993       .  S
O989        C997   1.288       .  A
O989      Co1009   2.104       .  S
O990        C998   1.271       .  A
O990      Co1010   2.027       .  S
O991        C997   1.270       .  A
O991      Co1008   1.902       .  S
O992        C998   1.256       .  A
O992      Co1007   1.955       .  S
O993        C996   1.278       .  A
O993      Co1010   2.044       .  S
O994        C995   1.266       .  A
O994      Co1009   2.009       .  S
C995       C1904   1.427       .  S
C996       C1882   1.465       .  S
C997       C1894   1.433       .  S
C998       C1886   1.433       .  S
O999       C1012   1.273       .  A
O999      Co1007   2.015       .  S
O1000      C1013   1.295       .  A
O1000     Co1008   2.115       .  S
O1001      C1014   1.276       .  A
O1001     Co1009   1.999       .  S
O1002      C1015   1.266       .  A
O1002     Co1010   1.993       .  S
O1003      C1015   1.265       .  A
O1003     Co1008   2.001       .  S
O1004      C1014   1.277       .  A
O1004     Co1007   2.039       .  S
O1005      C1012   1.268       .  A
O1005     Co1010   1.976       .  S
O1006      C1013   1.271       .  A
O1006     Co1009   1.888       .  S
Co1007     O1011   2.020       .  S
Co1008     O1011   1.994       .  S
Co1009     O1011   2.005       .  S
Co1010     O1011   2.050       .  S
C1012      C1955   1.436       .  S
C1013      C2052   1.431       .  S
C1014      C2112   1.470       .  S
C1015      C1877   1.440       .  S
O1016      C1024   1.262       .  A
O1016     Co1036   1.877       .  S
O1017      C1025   1.252       .  A
O1017     Co1037   1.947       .  S
O1018      C1026   1.257       .  A
O1018     Co1038   1.987       .  S
O1019      C1027   1.274       .  A
O1019     Co1039   2.035       .  S
O1020      C1026   1.256       .  A
O1020     Co1037   1.974       .  S
O1021      C1027   1.268       .  A
O1021     Co1036   1.985       .  S
O1022      C1025   1.275       .  A
O1022     Co1039   2.041       .  S
O1023      C1024   1.297       .  A
O1023     Co1038   2.124       .  S
C1024      C1872   1.421       .  S
C1025      C1875   1.436       .  S
C1026      C1869   1.421       .  S
C1027      C1873   1.453       .  S
O1028      C1041   1.256       .  A
O1028     Co1036   1.985       .  S
O1029      C1042   1.276       .  A
O1029     Co1037   2.028       .  S
O1030      C1043   1.265       .  A
O1030     Co1038   1.883       .  S
O1031      C1044   1.261       .  A
O1031     Co1039   1.958       .  S
O1032      C1044   1.275       .  A
O1032     Co1037   2.024       .  S
O1033      C1043   1.299       .  A
O1033     Co1036   2.124       .  S
O1034      C1041   1.263       .  A
O1034     Co1039   1.996       .  S
O1035      C1042   1.279       .  A
O1035     Co1038   2.005       .  S
Co1036     O1040   1.994       .  S
Co1037     O1040   2.024       .  S
Co1038     O1040   2.004       .  S
Co1039     O1040   2.059       .  S
C1041      C1867   1.435       .  S
C1042      C2086   1.466       .  S
C1043      C2214   1.438       .  S
C1044      C1888   1.432       .  S
O1045      C1053   1.275       .  A
O1045     Co1065   2.027       .  S
O1046      C1054   1.264       .  A
O1046     Co1066   2.007       .  S
O1047      C1055   1.269       .  A
O1047     Co1067   1.894       .  S
O1048      C1056   1.261       .  A
O1048     Co1068   1.959       .  S
O1049      C1055   1.295       .  A
O1049     Co1066   2.112       .  S
O1050      C1056   1.278       .  A
O1050     Co1065   2.038       .  S
O1051      C1054   1.264       .  A
O1051     Co1068   1.999       .  S
O1052      C1053   1.285       .  A
O1052     Co1067   2.021       .  S
C1053      C2138   1.476       .  S
C1054      C1860   1.450       .  S
C1055      C2054   1.440       .  S
C1056      C1857   1.443       .  S
O1057      C1070   1.254       .  A
O1057     Co1065   1.956       .  S
O1058      C1071   1.264       .  A
O1058     Co1066   1.886       .  S
O1059      C1072   1.258       .  A
O1059     Co1067   1.987       .  S
O1060      C1073   1.273       .  A
O1060     Co1068   2.033       .  S
O1061      C1073   1.268       .  A
O1061     Co1066   1.987       .  S
O1062      C1072   1.259       .  A
O1062     Co1065   1.979       .  S
O1063      C1070   1.276       .  A
O1063     Co1068   2.051       .  S
O1064      C1071   1.298       .  A
O1064     Co1067   2.134       .  S
Co1065     O1069   2.034       .  S
Co1066     O1069   2.005       .  S
Co1067     O1069   2.017       .  S
Co1068     O1069   2.065       .  S
C1070      C1874   1.451       .  S
C1071      C1861   1.435       .  S
C1072      C1863   1.425       .  S
C1073      C1866   1.455       .  S
O1074      C1082   1.276       .  A
O1074     Co1094   2.025       .  S
O1075      C1083   1.265       .  A
O1075     Co1095   2.007       .  S
O1076      C1084   1.266       .  A
O1076     Co1096   1.894       .  S
O1077      C1085   1.258       .  A
O1077     Co1097   1.952       .  S
O1078      C1084   1.299       .  A
O1078     Co1095   2.126       .  S
O1079      C1085   1.272       .  A
O1079     Co1094   2.019       .  S
O1080      C1083   1.267       .  A
O1080     Co1097   2.004       .  S
O1081      C1082   1.276       .  A
O1081     Co1096   1.995       .  S
C1082      C2194   1.458       .  S
C1083      C1900   1.454       .  S
C1084      C2174   1.450       .  S
C1085      C1851   1.425       .  S
O1086      C1099   1.253       .  A
O1086     Co1094   1.951       .  S
O1087      C1100   1.265       .  A
O1087     Co1095   1.881       .  S
O1088      C1101   1.261       .  A
O1088     Co1096   2.008       .  S
O1089      C1102   1.269       .  A
O1089     Co1097   2.013       .  S
O1090      C1102   1.267       .  A
O1090     Co1095   1.983       .  S
O1091      C1101   1.254       .  A
O1091     Co1094   1.972       .  S
O1092      C1099   1.281       .  A
O1092     Co1097   2.064       .  S
O1093      C1100   1.295       .  A
O1093     Co1096   2.112       .  S
Co1094     O1098   2.031       .  S
Co1095     O1098   1.999       .  S
Co1096     O1098   2.008       .  S
Co1097     O1098   2.059       .  S
C1099      C1865   1.452       .  S
C1100      C1856   1.422       .  S
C1101      C1853   1.435       .  S
C1102      C1876   1.439       .  S
O1103      C1111   1.255       .  A
O1103     Co1123   1.969       .  S
O1104      C1112   1.269       .  A
O1104     Co1124   1.980       .  S
O1105      C1113   1.295       .  A
O1105     Co1125   2.118       .  S
O1106      C1114   1.275       .  A
O1106     Co1126   2.046       .  S
O1107      C1113   1.264       .  A
O1107     Co1124   1.885       .  S
O1108      C1114   1.253       .  A
O1108     Co1123   1.951       .  S
O1109      C1112   1.273       .  A
O1109     Co1126   2.024       .  S
O1110      C1111   1.260       .  A
O1110     Co1125   1.994       .  S
C1111      C1871   1.420       .  S
C1112      C1847   1.444       .  S
C1113      C1864   1.426       .  S
C1114      C1850   1.441       .  S
O1115      C1128   1.275       .  A
O1115     Co1123   2.020       .  S
O1116      C1129   1.297       .  A
O1116     Co1124   2.116       .  S
O1117      C1130   1.280       .  A
O1117     Co1125   2.008       .  S
O1118      C1131   1.263       .  A
O1118     Co1126   1.995       .  S
O1119      C1131   1.261       .  A
O1119     Co1124   1.998       .  S
O1120      C1130   1.276       .  A
O1120     Co1123   2.031       .  S
O1121      C1128   1.259       .  A
O1121     Co1126   1.947       .  S
O1122      C1129   1.268       .  A
O1122     Co1125   1.883       .  S
Co1123     O1127   2.025       .  S
Co1124     O1127   1.993       .  S
Co1125     O1127   2.000       .  S
Co1126     O1127   2.051       .  S
C1128      C1846   1.422       .  S
C1129      C2140   1.434       .  S
C1130      C2216   1.468       .  S
C1131      C1880   1.443       .  S
O1132      C1140   1.256       .  A
O1132     Co1152   1.973       .  S
O1133      C1141   1.267       .  A
O1133     Co1153   1.980       .  S
O1134      C1142   1.295       .  A
O1134     Co1154   2.121       .  S
O1135      C1143   1.276       .  A
O1135     Co1155   2.044       .  S
O1136      C1142   1.264       .  A
O1136     Co1153   1.880       .  S
O1137      C1143   1.255       .  A
O1137     Co1152   1.956       .  S
O1138      C1141   1.272       .  A
O1138     Co1155   2.025       .  S
O1139      C1140   1.259       .  A
O1139     Co1154   1.989       .  S
C1140      C1855   1.422       .  S
C1141      C1849   1.444       .  S
C1142      C1870   1.422       .  S
C1143      C1843   1.443       .  S
O1144      C1157   1.274       .  A
O1144     Co1152   2.022       .  S
O1145      C1158   1.297       .  A
O1145     Co1153   2.122       .  S
O1146      C1159   1.279       .  A
O1146     Co1154   2.003       .  S
O1147      C1160   1.258       .  A
O1147     Co1155   1.981       .  S
O1148      C1160   1.260       .  A
O1148     Co1153   1.993       .  S
O1149      C1159   1.278       .  A
O1149     Co1152   2.036       .  S
O1150      C1157   1.255       .  A
O1150     Co1155   1.939       .  S
O1151      C1158   1.266       .  A
O1151     Co1154   1.887       .  S
Co1152     O1156   2.025       .  S
Co1153     O1156   1.995       .  S
Co1154     O1156   2.000       .  S
Co1155     O1156   2.049       .  S
C1157      C1839   1.420       .  S
C1158      C2087   1.440       .  S
C1159      C2176   1.470       .  S
C1160      C1841   1.430       .  S
O1161      C1169   1.295       .  A
O1161     Co1181   2.112       .  S
O1162      C1170   1.275       .  A
O1162     Co1182   2.030       .  S
O1163      C1171   1.275       .  A
O1163     Co1183   1.997       .  S
O1164      C1172   1.262       .  A
O1164     Co1184   1.995       .  S
O1165      C1171   1.274       .  A
O1165     Co1182   2.021       .  S
O1166      C1172   1.259       .  A
O1166     Co1181   1.995       .  S
O1167      C1170   1.261       .  A
O1167     Co1184   1.962       .  S
O1168      C1169   1.267       .  A
O1168     Co1183   1.883       .  S
C1169      C2196   1.430       .  S
C1170      C1878   1.440       .  S
C1171      C2055   1.457       .  S
C1172      C1838   1.440       .  S
O1173      C1186   1.268       .  A
O1173     Co1181   1.976       .  S
O1174      C1187   1.257       .  A
O1174     Co1182   1.976       .  S
O1175      C1188   1.298       .  A
O1175     Co1183   2.129       .  S
O1176      C1189   1.276       .  A
O1176     Co1184   2.045       .  S
O1177      C1189   1.253       .  A
O1177     Co1182   1.947       .  S
O1178      C1188   1.262       .  A
O1178     Co1181   1.885       .  S
O1179      C1186   1.275       .  A
O1179     Co1184   2.031       .  S
O1180      C1187   1.261       .  A
O1180     Co1183   2.003       .  S
Co1181     O1185   1.993       .  S
Co1182     O1185   2.027       .  S
Co1183     O1185   2.009       .  S
Co1184     O1185   2.056       .  S
C1186      C1844   1.445       .  S
C1187      C1862   1.434       .  S
C1188      C1854   1.435       .  S
C1189      C1848   1.441       .  S
O1190      C1198   1.280       .  A
O1190     Co1210   2.039       .  S
O1191      C1199   1.263       .  A
O1191     Co1211   2.008       .  S
O1192      C1200   1.270       .  A
O1192     Co1212   1.903       .  S
O1193      C1201   1.268       .  A
O1193     Co1213   1.974       .  S
O1194      C1200   1.295       .  A
O1194     Co1211   2.103       .  S
O1195      C1201   1.270       .  A
O1195     Co1210   2.004       .  S
O1196      C1199   1.259       .  A
O1196     Co1213   1.983       .  S
O1197      C1198   1.273       .  A
O1197     Co1212   1.983       .  S
C1198      C2210   1.455       .  S
C1199      C1932   1.442       .  S
C1200      C2078   1.447       .  S
C1201      C1827   1.429       .  S
O1202      C1215   1.256       .  A
O1202     Co1210   1.961       .  S
O1203      C1216   1.263       .  A
O1203     Co1211   1.896       .  S
O1204      C1217   1.264       .  A
O1204     Co1212   2.016       .  S
O1205      C1218   1.282       .  A
O1205     Co1213   2.051       .  S
O1206      C1218   1.261       .  A
O1206     Co1211   1.956       .  S
O1207      C1217   1.249       .  A
O1207     Co1210   1.951       .  S
O1208      C1215   1.266       .  A
O1208     Co1213   2.022       .  S
O1209      C1216   1.292       .  A
O1209     Co1212   2.108       .  S
Co1210     O1214   2.010       .  S
Co1211     O1214   1.998       .  S
Co1212     O1214   2.021       .  S
Co1213     O1214   2.051       .  S
C1215      C1834   1.434       .  S
C1216      C1832   1.431       .  S
C1217      C1830   1.422       .  S
C1218      C1835   1.441       .  S
O1219      C1227   1.256       .  A
O1219     Co1239   1.968       .  S
O1220      C1228   1.269       .  A
O1220     Co1240   1.982       .  S
O1221      C1229   1.284       .  A
O1221     Co1241   2.082       .  S
O1222      C1230   1.280       .  A
O1222     Co1242   2.066       .  S
O1223      C1229   1.273       .  A
O1223     Co1240   1.910       .  S
O1224      C1230   1.257       .  A
O1224     Co1239   1.965       .  S
O1225      C1228   1.273       .  A
O1225     Co1242   2.018       .  S
O1226      C1227   1.265       .  A
O1226     Co1241   2.017       .  S
C1227      C1822   1.433       .  S
C1228      C1836   1.443       .  S
C1229      C1819   1.431       .  S
C1230      C1825   1.463       .  S
O1231      C1244   1.269       .  A
O1231     Co1239   2.004       .  S
O1232      C1245   1.297       .  A
O1232     Co1240   2.115       .  S
O1233      C1246   1.276       .  A
O1233     Co1241   1.988       .  S
O1234      C1247   1.271       .  A
O1234     Co1242   2.016       .  S
O1235      C1247   1.275       .  A
O1235     Co1240   2.039       .  S
O1236      C1246   1.279       .  A
O1236     Co1239   2.039       .  S
O1237      C1244   1.265       .  A
O1237     Co1242   1.965       .  S
O1238      C1245   1.269       .  A
O1238     Co1241   1.901       .  S
Co1239     O1243   2.034       .  S
Co1240     O1243   2.012       .  S
Co1241     O1243   2.010       .  S
Co1242     O1243   2.059       .  S
C1244      C1852   1.425       .  S
C1245      C1824   1.450       .  S
C1246      C2190   1.461       .  S
C1247      C1942   1.481       .  S
O1248      C1256   1.262       .  A
O1248     Co1268   1.988       .  S
O1249      C1257   1.266       .  A
O1249     Co1269   1.979       .  S
O1250      C1258   1.294       .  A
O1250     Co1270   2.122       .  S
O1251      C1259   1.267       .  A
O1251     Co1271   2.019       .  S
O1252      C1258   1.265       .  A
O1252     Co1269   1.895       .  S
O1253      C1259   1.257       .  A
O1253     Co1268   1.960       .  S
O1254      C1257   1.280       .  A
O1254     Co1271   2.057       .  S
O1255      C1256   1.261       .  A
O1255     Co1270   1.993       .  S
C1256      C1817   1.433       .  S
C1257      C1826   1.465       .  S
C1258      C1816   1.437       .  S
C1259      C1833   1.434       .  S
O1260      C1273   1.279       .  A
O1260     Co1268   2.037       .  S
O1261      C1274   1.294       .  A
O1261     Co1269   2.103       .  S
O1262      C1275   1.279       .  A
O1262     Co1270   2.007       .  S
O1263      C1276   1.258       .  A
O1263     Co1271   1.984       .  S
O1264      C1276   1.266       .  A
O1264     Co1269   2.020       .  S
O1265      C1275   1.275       .  A
O1265     Co1268   2.028       .  S
O1266      C1273   1.264       .  A
O1266     Co1271   1.967       .  S
O1267      C1274   1.270       .  A
O1267     Co1270   1.890       .  S
Co1268     O1272   2.031       .  S
Co1269     O1272   2.006       .  S
Co1270     O1272   2.010       .  S
Co1271     O1272   2.057       .  S
C1273      C1813   1.445       .  S
C1274      C2058   1.433       .  S
C1275      C2106   1.469       .  S
C1276      C1859   1.450       .  S
O1277      C1285   1.259       .  A
O1277     Co1297   1.886       .  S
O1278      C1286   1.254       .  A
O1278     Co1298   1.954       .  S
O1279      C1287   1.260       .  A
O1279     Co1299   1.998       .  S
O1280      C1288   1.284       .  A
O1280     Co1300   2.068       .  S
O1281      C1287   1.260       .  A
O1281     Co1298   1.986       .  S
O1282      C1288   1.266       .  A
O1282     Co1297   1.981       .  S
O1283      C1286   1.271       .  A
O1283     Co1300   2.026       .  S
O1284      C1285   1.297       .  A
O1284     Co1299   2.128       .  S
C1285      C1821   1.433       .  S
C1286      C1809   1.434       .  S
C1287      C1815   1.437       .  S
C1288      C1812   1.470       .  S
O1289      C1302   1.258       .  A
O1289     Co1297   1.995       .  S
O1290      C1303   1.275       .  A
O1290     Co1298   2.026       .  S
O1291      C1304   1.266       .  A
O1291     Co1299   1.884       .  S
O1292      C1305   1.268       .  A
O1292     Co1300   1.990       .  S
O1293      C1305   1.279       .  A
O1293     Co1298   2.045       .  S
O1294      C1304   1.296       .  A
O1294     Co1297   2.112       .  S
O1295      C1302   1.261       .  A
O1295     Co1300   1.995       .  S
O1296      C1303   1.275       .  A
O1296     Co1299   1.997       .  S
Co1297     O1301   2.007       .  S
Co1298     O1301   2.036       .  S
Co1299     O1301   2.017       .  S
Co1300     O1301   2.064       .  S
C1302      C1808   1.441       .  S
C1303      C2060   1.461       .  S
C1304      C2192   1.432       .  S
C1305      C1909   1.468       .  S
O1306      C1314   1.280       .  A
O1306     Co1326   2.041       .  S
O1307      C1315   1.264       .  A
O1307     Co1327   1.999       .  S
O1308      C1316   1.270       .  A
O1308     Co1328   1.902       .  S
O1309      C1317   1.267       .  A
O1309     Co1329   1.971       .  S
O1310      C1316   1.299       .  A
O1310     Co1327   2.125       .  S
O1311      C1317   1.268       .  A
O1311     Co1326   1.998       .  S
O1312      C1315   1.266       .  A
O1312     Co1329   1.992       .  S
O1313      C1314   1.276       .  A
O1313     Co1328   1.991       .  S
C1314      C2212   1.460       .  S
C1315      C1912   1.441       .  S
C1316      C2108   1.455       .  S
C1317      C1845   1.423       .  S
O1318      C1331   1.256       .  A
O1318     Co1326   1.956       .  S
O1319      C1332   1.265       .  A
O1319     Co1327   1.895       .  S
O1320      C1333   1.264       .  A
O1320     Co1328   2.013       .  S
O1321      C1334   1.275       .  A
O1321     Co1329   2.026       .  S
O1322      C1334   1.267       .  A
O1322     Co1327   1.971       .  S
O1323      C1333   1.249       .  A
O1323     Co1326   1.951       .  S
O1324      C1331   1.273       .  A
O1324     Co1329   2.037       .  S
O1325      C1332   1.292       .  A
O1325     Co1328   2.108       .  S
Co1326     O1330   2.012       .  S
Co1327     O1330   1.993       .  S
Co1328     O1330   2.016       .  S
Co1329     O1330   2.053       .  S
C1331      C1805   1.437       .  S
C1332      C1818   1.432       .  S
C1333      C1829   1.423       .  S
C1334      C1810   1.436       .  S
O1335      C1343   1.262       .  A
O1335     Co1355   1.978       .  S
O1336      C1344   1.268       .  A
O1336     Co1356   1.982       .  S
O1337      C1345   1.283       .  A
O1337     Co1357   2.085       .  S
O1338      C1346   1.268       .  A
O1338     Co1358   2.021       .  S
O1339      C1345   1.271       .  A
O1339     Co1356   1.910       .  S
O1340      C1346   1.259       .  A
O1340     Co1355   1.968       .  S
O1341      C1344   1.284       .  A
O1341     Co1358   2.063       .  S
O1342      C1343   1.267       .  A
O1342     Co1357   2.007       .  S
C1343      C1831   1.431       .  S
C1344      C1811   1.470       .  S
C1345      C1820   1.431       .  S
C1346      C1806   1.439       .  S
O1347      C1360   1.274       .  A
O1347     Co1355   2.016       .  S
O1348      C1361   1.294       .  A
O1348     Co1356   2.105       .  S
O1349      C1362   1.277       .  A
O1349     Co1357   1.997       .  S
O1350      C1363   1.257       .  A
O1350     Co1358   1.983       .  S
O1351      C1363   1.270       .  A
O1351     Co1356   2.033       .  S
O1352      C1362   1.276       .  A
O1352     Co1355   2.034       .  S
O1353      C1360   1.264       .  A
O1353     Co1358   1.964       .  S
O1354      C1361   1.272       .  A
O1354     Co1357   1.901       .  S
Co1355     O1359   2.032       .  S
Co1356     O1359   2.014       .  S
Co1357     O1359   2.009       .  S
Co1358     O1359   2.051       .  S
C1360      C1842   1.430       .  S
C1361      C1804   1.443       .  S
C1362      C2080   1.468       .  S
C1363      C1801   1.458       .  S
O1364      C1372   1.277       .  A
O1364     Co1384   2.033       .  S
O1365      C1373   1.270       .  A
O1365     Co1385   2.018       .  S
O1366      C1374   1.268       .  A
O1366     Co1386   1.888       .  S
O1367      C1375   1.258       .  A
O1367     Co1387   1.953       .  S
O1368      C1374   1.295       .  A
O1368     Co1385   2.116       .  S
O1369      C1375   1.275       .  A
O1369     Co1384   2.029       .  S
O1370      C1373   1.264       .  A
O1370     Co1387   1.991       .  S
O1371      C1372   1.278       .  A
O1371     Co1386   1.996       .  S
C1372      C2218   1.464       .  S
C1373      C1976   1.451       .  S
C1374      C2166   1.435       .  S
C1375      C1868   1.434       .  S
O1376      C1389   1.254       .  A
O1376     Co1384   1.952       .  S
O1377      C1390   1.271       .  A
O1377     Co1385   1.900       .  S
O1378      C1391   1.261       .  A
O1378     Co1386   1.997       .  S
O1379      C1392   1.272       .  A
O1379     Co1387   2.025       .  S
O1380      C1392   1.271       .  A
O1380     Co1385   1.991       .  S
O1381      C1391   1.258       .  A
O1381     Co1384   1.978       .  S
O1382      C1389   1.278       .  A
O1382     Co1387   2.050       .  S
O1383      C1390   1.287       .  A
O1383     Co1386   2.097       .  S
Co1384     O1388   2.032       .  S
Co1385     O1388   2.004       .  S
Co1386     O1388   1.999       .  S
Co1387     O1388   2.049       .  S
C1389      C1799   1.444       .  S
C1390      C1796   1.428       .  S
C1391      C1794   1.426       .  S
C1392      C1798   1.454       .  S
O1393      C1401   1.280       .  A
O1393     Co1413   2.044       .  S
O1394      C1402   1.260       .  A
O1394     Co1414   1.994       .  S
O1395      C1403   1.265       .  A
O1395     Co1415   1.878       .  S
O1396      C1404   1.262       .  A
O1396     Co1416   1.960       .  S
O1397      C1403   1.298       .  A
O1397     Co1414   2.120       .  S
O1398      C1404   1.269       .  A
O1398     Co1413   2.003       .  S
O1399      C1402   1.266       .  A
O1399     Co1416   2.000       .  S
O1400      C1401   1.277       .  A
O1400     Co1415   2.000       .  S
C1401      C2154   1.468       .  S
C1402      C1858   1.443       .  S
C1403      C2133   1.431       .  S
C1404      C1785   1.420       .  S
O1405      C1418   1.256       .  A
O1405     Co1413   1.955       .  S
O1406      C1419   1.264       .  A
O1406     Co1414   1.883       .  S
O1407      C1420   1.257       .  A
O1407     Co1415   1.991       .  S
O1408      C1421   1.274       .  A
O1408     Co1416   2.029       .  S
O1409      C1421   1.268       .  A
O1409     Co1414   1.980       .  S
O1410      C1420   1.253       .  A
O1410     Co1413   1.967       .  S
O1411      C1418   1.276       .  A
O1411     Co1416   2.045       .  S
O1412      C1419   1.295       .  A
O1412     Co1415   2.117       .  S
Co1413     O1417   2.023       .  S
Co1414     O1417   1.991       .  S
Co1415     O1417   2.001       .  S
Co1416     O1417   2.051       .  S
C1418      C1791   1.444       .  S
C1419      C1790   1.424       .  S
C1420      C1787   1.419       .  S
C1421      C1800   1.447       .  S
O1422      C1430   1.267       .  A
O1422     Co1442   1.890       .  S
O1423      C1431   1.249       .  A
O1423     Co1443   1.947       .  S
O1424      C1432   1.259       .  A
O1424     Co1444   2.009       .  S
O1425      C1433   1.271       .  A
O1425     Co1445   2.026       .  S
O1426      C1432   1.246       .  A
O1426     Co1443   1.951       .  S
O1427      C1433   1.265       .  A
O1427     Co1442   1.979       .  S
O1428      C1431   1.278       .  A
O1428     Co1445   2.061       .  S
O1429      C1430   1.293       .  A
O1429     Co1444   2.109       .  S
C1430      C1783   1.428       .  S
C1431      C1797   1.449       .  S
C1432      C1781   1.423       .  S
C1433      C1792   1.446       .  S
O1434      C1447   1.266       .  A
O1434     Co1442   2.013       .  S
O1435      C1448   1.280       .  A
O1435     Co1443   2.045       .  S
O1436      C1449   1.269       .  A
O1436     Co1444   1.895       .  S
O1437      C1450   1.258       .  A
O1437     Co1445   1.948       .  S
O1438      C1450   1.271       .  A
O1438     Co1443   2.010       .  S
O1439      C1449   1.297       .  A
O1439     Co1442   2.110       .  S
O1440      C1447   1.263       .  A
O1440     Co1445   1.994       .  S
O1441      C1448   1.281       .  A
O1441     Co1444   2.008       .  S
Co1442     O1446   2.000       .  S
Co1443     O1446   2.018       .  S
Co1444     O1446   2.022       .  S
Co1445     O1446   2.064       .  S
C1447      C1779   1.452       .  S
C1448      C2186   1.476       .  S
C1449      C2197   1.444       .  S
C1450      C1983   1.417       .  S
O1451      C1459   1.283       .  A
O1451     Co1471   2.055       .  S
O1452      C1460   1.266       .  A
O1452     Co1472   2.011       .  S
O1453      C1461   1.273       .  A
O1453     Co1473   1.907       .  S
O1454      C1462   1.269       .  A
O1454     Co1474   1.976       .  S
O1455      C1461   1.295       .  A
O1455     Co1472   2.109       .  S
O1456      C1462   1.266       .  A
O1456     Co1471   1.989       .  S
O1457      C1460   1.263       .  A
O1457     Co1474   1.986       .  S
O1458      C1459   1.274       .  A
O1458     Co1473   1.984       .  S
C1459      C2187   1.465       .  S
C1460      C1774   1.446       .  S
C1461      C2168   1.451       .  S
C1462      C1840   1.421       .  S
O1463      C1476   1.256       .  A
O1463     Co1471   1.960       .  S
O1464      C1477   1.268       .  A
O1464     Co1472   1.904       .  S
O1465      C1478   1.267       .  A
O1465     Co1473   2.024       .  S
O1466      C1479   1.281       .  A
O1466     Co1474   2.046       .  S
O1467      C1479   1.268       .  A
O1467     Co1472   1.975       .  S
O1468      C1478   1.249       .  A
O1468     Co1471   1.946       .  S
O1469      C1476   1.268       .  A
O1469     Co1474   2.023       .  S
O1470      C1477   1.284       .  A
O1470     Co1473   2.084       .  S
Co1471     O1475   2.009       .  S
Co1472     O1475   1.998       .  S
Co1473     O1475   2.018       .  S
Co1474     O1475   2.050       .  S
C1476      C1777   1.433       .  S
C1477      C1795   1.428       .  S
C1478      C1782   1.422       .  S
C1479      C1775   1.451       .  S
O1480      C1488   1.262       .  A
O1480     Co1500   1.986       .  S
O1481      C1489   1.267       .  A
O1481     Co1501   1.980       .  S
O1482      C1490   1.296       .  A
O1482     Co1502   2.123       .  S
O1483      C1491   1.269       .  A
O1483     Co1503   2.019       .  S
O1484      C1490   1.262       .  A
O1484     Co1501   1.877       .  S
O1485      C1491   1.259       .  A
O1485     Co1500   1.963       .  S
O1486      C1489   1.280       .  A
O1486     Co1503   2.052       .  S
O1487      C1488   1.260       .  A
O1487     Co1502   1.989       .  S
C1488      C1784   1.428       .  S
C1489      C1771   1.458       .  S
C1490      C1788   1.420       .  S
C1491      C1778   1.433       .  S
O1492      C1505   1.276       .  A
O1492     Co1500   2.032       .  S
O1493      C1506   1.296       .  A
O1493     Co1501   2.117       .  S
O1494      C1507   1.280       .  A
O1494     Co1502   2.005       .  S
O1495      C1508   1.257       .  A
O1495     Co1503   1.980       .  S
O1496      C1508   1.258       .  A
O1496     Co1501   1.990       .  S
O1497      C1507   1.276       .  A
O1497     Co1500   2.026       .  S
O1498      C1505   1.261       .  A
O1498     Co1503   1.960       .  S
O1499      C1506   1.269       .  A
O1499     Co1502   1.899       .  S
Co1500     O1504   2.027       .  S
Co1501     O1504   1.998       .  S
Co1502     O1504   2.005       .  S
Co1503     O1504   2.052       .  S
C1505      C1837   1.440       .  S
C1506      C2155   1.447       .  S
C1507      C2200   1.464       .  S
C1508      C1954   1.428       .  S
O1509      C1517   1.300       .  A
O1509     Co1529   2.125       .  S
O1510      C1518   1.277       .  A
O1510     Co1530   2.031       .  S
O1511      C1519   1.279       .  A
O1511     Co1531   2.007       .  S
O1512      C1520   1.259       .  A
O1512     Co1532   1.991       .  S
O1513      C1519   1.277       .  A
O1513     Co1530   2.034       .  S
O1514      C1520   1.264       .  A
O1514     Co1529   2.011       .  S
O1515      C1518   1.259       .  A
O1515     Co1532   1.953       .  S
O1516      C1517   1.266       .  A
O1516     Co1531   1.894       .  S
C1517      C2220   1.453       .  S
C1518      C1962   1.435       .  S
C1519      C2135   1.472       .  S
C1520      C1769   1.449       .  S
O1521      C1534   1.263       .  A
O1521     Co1529   1.977       .  S
O1522      C1535   1.256       .  A
O1522     Co1530   1.974       .  S
O1523      C1536   1.294       .  A
O1523     Co1531   2.116       .  S
O1524      C1537   1.276       .  A
O1524     Co1532   2.053       .  S
O1525      C1537   1.254       .  A
O1525     Co1530   1.965       .  S
O1526      C1536   1.264       .  A
O1526     Co1529   1.888       .  S
O1527      C1534   1.277       .  A
O1527     Co1532   2.040       .  S
O1528      C1535   1.259       .  A
O1528     Co1531   1.992       .  S
Co1529     O1533   2.014       .  S
Co1530     O1533   2.034       .  S
Co1531     O1533   2.014       .  S
Co1532     O1533   2.066       .  S
C1534      C1776   1.451       .  S
C1535      C1789   1.424       .  S
C1536      C1793   1.426       .  S
C1537      C1772   1.457       .  S
O1538      C1546   1.254       .  A
O1538     Co1558   1.968       .  S
O1539      C1547   1.267       .  A
O1539     Co1559   1.981       .  S
O1540      C1548   1.296       .  A
O1540     Co1560   2.118       .  S
O1541      C1549   1.277       .  A
O1541     Co1561   2.051       .  S
O1542      C1548   1.265       .  A
O1542     Co1559   1.880       .  S
O1543      C1549   1.258       .  A
O1543     Co1558   1.960       .  S
O1544      C1547   1.273       .  A
O1544     Co1561   2.028       .  S
O1545      C1546   1.259       .  A
O1545     Co1560   1.999       .  S
C1546      C1764   1.423       .  S
C1547      C1767   1.450       .  S
C1548      C1761   1.424       .  S
C1549      C1765   1.453       .  S
O1550      C1563   1.269       .  A
O1550     Co1558   2.004       .  S
O1551      C1564   1.296       .  A
O1551     Co1559   2.116       .  S
O1552      C1565   1.276       .  A
O1552     Co1560   1.996       .  S
O1553      C1566   1.265       .  A
O1553     Co1561   1.999       .  S
O1554      C1566   1.262       .  A
O1554     Co1559   1.998       .  S
O1555      C1565   1.280       .  A
O1555     Co1558   2.041       .  S
O1556      C1563   1.260       .  A
O1556     Co1561   1.956       .  S
O1557      C1564   1.265       .  A
O1557     Co1560   1.885       .  S
Co1558     O1562   2.026       .  S
Co1559     O1562   1.994       .  S
Co1560     O1562   2.004       .  S
Co1561     O1562   2.050       .  S
C1563      C1786   1.421       .  S
C1564      C2102   1.434       .  S
C1565      C2150   1.462       .  S
C1566      C1814   1.445       .  S
O1567      C1575   1.297       .  A
O1567     Co1587   2.115       .  S
O1568      C1576   1.277       .  A
O1568     Co1588   2.036       .  S
O1569      C1577   1.280       .  A
O1569     Co1589   2.007       .  S
O1570      C1578   1.262       .  A
O1570     Co1590   1.993       .  S
O1571      C1577   1.275       .  A
O1571     Co1588   2.023       .  S
O1572      C1578   1.264       .  A
O1572     Co1587   2.011       .  S
O1573      C1576   1.262       .  A
O1573     Co1590   1.965       .  S
O1574      C1575   1.267       .  A
O1574     Co1589   1.894       .  S
C1575      C2202   1.446       .  S
C1576      C2016   1.445       .  S
C1577      C1758   1.466       .  S
C1578      C1780   1.451       .  S
O1579      C1592   1.264       .  A
O1579     Co1587   1.979       .  S
O1580      C1593   1.257       .  A
O1580     Co1588   1.980       .  S
O1581      C1594   1.296       .  A
O1581     Co1589   2.123       .  S
O1582      C1595   1.273       .  A
O1582     Co1590   2.039       .  S
O1583      C1595   1.252       .  A
O1583     Co1588   1.948       .  S
O1584      C1594   1.264       .  A
O1584     Co1587   1.885       .  S
O1585      C1592   1.275       .  A
O1585     Co1590   2.042       .  S
O1586      C1593   1.259       .  A
O1586     Co1589   1.993       .  S
Co1587     O1591   2.005       .  S
Co1588     O1591   2.031       .  S
Co1589     O1591   2.009       .  S
Co1590     O1591   2.064       .  S
C1592      C1766   1.455       .  S
C1593      C1754   1.429       .  S
C1594      C1756   1.429       .  S
C1595      C1760   1.437       .  S
O1596      C1604   1.256       .  A
O1596     Co1616   1.977       .  S
O1597      C1605   1.267       .  A
O1597     Co1617   1.979       .  S
O1598      C1606   1.296       .  A
O1598     Co1618   2.124       .  S
O1599      C1607   1.278       .  A
O1599     Co1619   2.055       .  S
O1600      C1606   1.267       .  A
O1600     Co1617   1.893       .  S
O1601      C1607   1.254       .  A
O1601     Co1616   1.951       .  S
O1602      C1605   1.269       .  A
O1602     Co1619   2.016       .  S
O1603      C1604   1.258       .  A
O1603     Co1618   1.995       .  S
C1604      C1749   1.428       .  S
C1605      C1759   1.441       .  S
C1606      C1752   1.438       .  S
C1607      C1768   1.447       .  S
O1608      C1621   1.273       .  A
O1608     Co1616   2.022       .  S
O1609      C1622   1.295       .  A
O1609     Co1617   2.111       .  S
O1610      C1623   1.278       .  A
O1610     Co1618   2.002       .  S
O1611      C1624   1.267       .  A
O1611     Co1619   2.003       .  S
O1612      C1624   1.267       .  A
O1612     Co1617   2.013       .  S
O1613      C1623   1.277       .  A
O1613     Co1616   2.031       .  S
O1614      C1621   1.259       .  A
O1614     Co1619   1.952       .  S
O1615      C1622   1.265       .  A
O1615     Co1618   1.876       .  S
Co1616     O1620   2.029       .  S
Co1617     O1620   1.995       .  S
Co1618     O1620   1.999       .  S
Co1619     O1620   2.053       .  S
C1621      C1828   1.428       .  S
C1622      C2162   1.427       .  S
C1623      C2205   1.465       .  S
C1624      C2035   1.455       .  S
O1625      C1633   1.277       .  A
O1625     Co1645   2.027       .  S
O1626      C1634   1.260       .  A
O1626     Co1646   1.994       .  S
O1627      C1635   1.269       .  A
O1627     Co1647   1.900       .  S
O1628      C1636   1.259       .  A
O1628     Co1648   1.958       .  S
O1629      C1635   1.297       .  A
O1629     Co1646   2.117       .  S
O1630      C1636   1.276       .  A
O1630     Co1645   2.035       .  S
O1631      C1634   1.261       .  A
O1631     Co1648   1.990       .  S
O1632      C1633   1.283       .  A
O1632     Co1647   2.012       .  S
C1633      C2204   1.467       .  S
C1634      C1998   1.437       .  S
C1635      C2152   1.447       .  S
C1636      C1807   1.440       .  S
O1637      C1650   1.253       .  A
O1637     Co1645   1.952       .  S
O1638      C1651   1.263       .  A
O1638     Co1646   1.878       .  S
O1639      C1652   1.259       .  A
O1639     Co1647   1.995       .  S
O1640      C1653   1.275       .  A
O1640     Co1648   2.037       .  S
O1641      C1653   1.267       .  A
O1641     Co1646   1.981       .  S
O1642      C1652   1.256       .  A
O1642     Co1645   1.976       .  S
O1643      C1650   1.277       .  A
O1643     Co1648   2.050       .  S
O1644      C1651   1.298       .  A
O1644     Co1647   2.128       .  S
Co1645     O1649   2.029       .  S
Co1646     O1649   2.002       .  S
Co1647     O1649   2.015       .  S
Co1648     O1649   2.062       .  S
C1650      C1746   1.446       .  S
C1651      C1763   1.424       .  S
C1652      C1755   1.428       .  S
C1653      C1747   1.452       .  S
O1654      C1662   1.277       .  A
O1654     Co1674   2.032       .  S
O1655      C1663   1.264       .  A
O1655     Co1675   2.006       .  S
O1656      C1664   1.266       .  A
O1656     Co1676   1.889       .  S
O1657      C1665   1.264       .  A
O1657     Co1677   1.971       .  S
O1658      C1664   1.298       .  A
O1658     Co1675   2.122       .  S
O1659      C1665   1.274       .  A
O1659     Co1674   2.029       .  S
O1660      C1663   1.269       .  A
O1660     Co1677   2.011       .  S
O1661      C1662   1.279       .  A
O1661     Co1676   2.002       .  S
C1662      C2163   1.467       .  S
C1663      C1802   1.459       .  S
C1664      C1741   1.445       .  S
C1665      C1773   1.446       .  S
O1666      C1679   1.255       .  A
O1666     Co1674   1.952       .  S
O1667      C1680   1.265       .  A
O1667     Co1675   1.885       .  S
O1668      C1681   1.259       .  A
O1668     Co1676   1.999       .  S
O1669      C1682   1.273       .  A
O1669     Co1677   2.028       .  S
O1670      C1682   1.268       .  A
O1670     Co1675   1.986       .  S
O1671      C1681   1.259       .  A
O1671     Co1674   1.987       .  S
O1672      C1679   1.278       .  A
O1672     Co1677   2.049       .  S
O1673      C1680   1.296       .  A
O1673     Co1676   2.119       .  S
Co1674     O1678   2.036       .  S
Co1675     O1678   2.003       .  S
Co1676     O1678   2.007       .  S
Co1677     O1678   2.066       .  S
C1679      C1743   1.443       .  S
C1680      C1753   1.429       .  S
C1681      C1751   1.438       .  S
C1682      C1745   1.449       .  S
O1683      C1691   1.264       .  A
O1683     Co1703   1.885       .  S
O1684      C1692   1.254       .  A
O1684     Co1704   1.954       .  S
O1685      C1693   1.259       .  A
O1685     Co1705   1.993       .  S
O1686      C1694   1.273       .  A
O1686     Co1706   2.024       .  S
O1687      C1693   1.255       .  A
O1687     Co1704   1.972       .  S
O1688      C1694   1.268       .  A
O1688     Co1703   1.982       .  S
O1689      C1692   1.278       .  A
O1689     Co1706   2.056       .  S
O1690      C1691   1.296       .  A
O1690     Co1705   2.121       .  S
C1691      C1750   1.429       .  S
C1692      C1748   1.450       .  S
C1693      C1762   1.423       .  S
C1694      C1744   1.445       .  S
O1695      C1708   1.263       .  A
O1695     Co1703   2.007       .  S
O1696      C1709   1.276       .  A
O1696     Co1704   2.030       .  S
O1697      C1710   1.265       .  A
O1697     Co1705   1.884       .  S
O1698      C1711   1.256       .  A
O1698     Co1706   1.947       .  S
O1699      C1711   1.275       .  A
O1699     Co1704   2.027       .  S
O1700      C1710   1.300       .  A
O1700     Co1703   2.128       .  S
O1701      C1708   1.263       .  A
O1701     Co1706   1.995       .  S
O1702      C1709   1.279       .  A
O1702     Co1705   2.006       .  S
Co1703     O1707   2.002       .  S
Co1704     O1707   2.034       .  S
Co1705     O1707   2.005       .  S
Co1706     O1707   2.055       .  S
C1708      C1770   1.448       .  S
C1709      C2103   1.467       .  S
C1710      C2208   1.442       .  S
C1711      C1994   1.428       .  S
O1712      C1720   1.254       .  A
O1712     Co1732   1.958   1_545  S
O1713      C1721   1.258       .  A
O1713     Co1733   1.969   1_565  S
O1714      C1722   1.277       .  A
O1714     Co1734   2.063       .  S
O1715      C1723   1.271       .  A
O1715     Co1735   2.042       .  S
O1716      C1722   1.260       .  A
O1716     Co1733   1.979       .  S
O1717      C1723   1.257       .  A
O1717     Co1732   1.968       .  S
O1718      C1721   1.272       .  A
O1718     Co1735   2.045       .  S
O1719      C1720   1.268       .  A
O1719     Co1734   2.022       .  S
C1720      C2022   1.430       .  S
C1721      C1823   1.451       .  S
C1722      C1757   1.469       .  S
C1723      C1948   1.448       .  S
O1724      C1737   1.273       .  A
O1724     Co1732   2.045       .  S
O1725      C1738   1.271       .  A
O1725     Co1733   2.034       .  S
O1726      C1739   1.266       .  A
O1726     Co1734   1.992       .  S
O1727      C1740   1.253       .  A
O1727     Co1735   1.954       .  S
O1728      C1740   1.274       .  A
O1728     Co1733   2.050   1_565  S
O1729      C1739   1.275       .  A
O1729     Co1732   2.051   1_545  S
O1730      C1737   1.255       .  A
O1730     Co1735   1.960       .  S
O1731      C1738   1.259       .  A
O1731     Co1734   1.970       .  S
Co1732     O1736   2.112   1_565  S
Co1733     O1736   2.123       .  S
Co1734     O1736   2.119       .  S
Co1735     O1736   2.111   1_565  S
C1737      C1920   1.444       .  S
C1738      C1742   1.445       .  S
C1739      C2008   1.469       .  S
C1740      C1803   1.443       .  S
C1741      C1742   1.211       .  T
C1743      C1744   1.213       .  T
C1745      C1746   1.215       .  T
C1747      C1748   1.218       .  T
C1749      C1750   1.200       .  T
C1751      C1752   1.207       .  T
C1753      C1754   1.202       .  T
C1755      C1756   1.203       .  T
C1757      C1758   1.222       .  T
C1759      C1760   1.207       .  T
C1761      C1762   1.199       .  T
C1763      C1764   1.200       .  T
C1765      C1766   1.215       .  T
C1767      C1768   1.213       .  T
C1769      C1770   1.215   1_455  T
C1771      C1772   1.222       .  T
C1773      C1774   1.210   1_655  T
C1775      C1776   1.217       .  T
C1777      C1778   1.204       .  T
C1779      C1780   1.214       .  T
C1781      C1782   1.198       .  T
C1783      C1784   1.203       .  T
C1785      C1786   1.195       .  T
C1787      C1788   1.197       .  T
C1789      C1790   1.198       .  T
C1791      C1792   1.211       .  T
C1793      C1794   1.200       .  T
C1795      C1796   1.202       .  T
C1797      C1798   1.216       .  T
C1799      C1800   1.213       .  T
C1801      C1802   1.218   1_565  T
C1803      C1804   1.212       .  T
C1805      C1806   1.208       .  T
C1807      C1808   1.209   1_545  T
C1809      C1810   1.208       .  T
C1811      C1812   1.227       .  T
C1813      C1814   1.213       .  T
C1815      C1816   1.207       .  T
C1817      C1818   1.203       .  T
C1819      C1820   1.207       .  T
C1821      C1822   1.204       .  T
C1823      C1824   1.214       .  T
C1825      C1826   1.222       .  T
C1827      C1828   1.201       .  T
C1829      C1830   1.200       .  T
C1831      C1832   1.206       .  T
C1833      C1834   1.204       .  T
C1835      C1836   1.212       .  T
C1837      C1838   1.206   1_545  T
C1839      C1840   1.197   1_565  T
C1841      C1842   1.203   1_455  T
C1843      C1844   1.213       .  T
C1845      C1846   1.200   1_655  T
C1847      C1848   1.210       .  T
C1849      C1850   1.211       .  T
C1851      C1852   1.200       .  T
C1853      C1854   1.205       .  T
C1855      C1856   1.198       .  T
C1857      C1858   1.211       .  T
C1859      C1860   1.215       .  T
C1861      C1862   1.206       .  T
C1863      C1864   1.199       .  T
C1865      C1866   1.218       .  T
C1867      C1868   1.206       .  T
C1869      C1870   1.198       .  T
C1871      C1872   1.198       .  T
C1873      C1874   1.215       .  T
C1875      C1876   1.209       .  T
C1877      C1878   1.209   1_556  T
C1879      C1880   1.212   1_556  T
C1881      C1882   1.222       .  T
C1883      C1884   1.224       .  T
C1885      C1886   1.204       .  T
C1887      C1888   1.205       .  T
C1889      C1890   1.210       .  T
C1891      C1892   1.200       .  T
C1893      C1894   1.207       .  T
C1895      C1896   1.204       .  T
C1897      C1898   1.218       .  T
C1899      C1900   1.218       .  T
C1901      C1902   1.196       .  T
C1903      C1904   1.202       .  T
C1905      C1906   1.208       .  T
C1907      C1908   1.228       .  T
C1909      C1910   1.224   1_554  T
C1911      C1912   1.209   1_556  T
C1913      C1914   1.228   1_655  T
C1915      C1916   1.216       .  T
C1917      C1918   1.203   1_455  T
C1919      C1920   1.214       .  T
C1921      C1922   1.215       .  T
C1923      C1924   1.215       .  T
C1925      C1926   1.226       .  T
C1927      C1928   1.201       .  T
C1929      C1930   1.210       .  T
C1931      C1932   1.211       .  T
C1933      C1934   1.216       .  T
C1935      C1936   1.201       .  T
C1937      C1938   1.221       .  T
C1939      C1940   1.203       .  T
C1941      C1942   1.233       .  T
C1943      C1944   1.205       .  T
C1945      C1946   1.207       .  T
C1947      C1948   1.213       .  T
C1949      C1950   1.221       .  T
C1951      C1952   1.216       .  T
C1953      C1954   1.202   1_556  T
C1955      C1956   1.209   1_565  T
C1957      C1958   1.204   1_545  T
C1959      C1960   1.217       .  T
C1961      C1962   1.206   1_556  T
C1963      C1964   1.211       .  T
C1965      C1966   1.219       .  T
C1967      C1968   1.213       .  T
C1969      C1970   1.198       .  T
C1971      C1972   1.201       .  T
C1973      C1974   1.216       .  T
C1975      C1976   1.216       .  T
C1977      C1978   1.209       .  T
C1979      C1980   1.200       .  T
C1981      C1982   1.223       .  T
C1983      C1984   1.197       .  T
C1985      C1986   1.207       .  T
C1987      C1988   1.200       .  T
C1989      C1990   1.211       .  T
C1991      C1992   1.211       .  T
C1993      C1994   1.201   1_556  T
C1995      C1996   1.218   1_455  T
C1997      C1998   1.205   1_556  T
C1999      C2000   1.208   1_545  T
C2001      C2002   1.210       .  T
C2003      C2004   1.218   1_655  T
C2005      C2006   1.223   1_545  T
C2007      C2008   1.228       .  T
C2009      C2010   1.211       .  T
C2011      C2012   1.227       .  T
C2013      C2014   1.212       .  T
C2015      C2016   1.212       .  T
C2017      C2018   1.204       .  T
C2019      C2020   1.209       .  T
C2021      C2022   1.201       .  T
C2023      C2024   1.204       .  T
C2025      C2026   1.208       .  T
C2027      C2028   1.199       .  T
C2029      C2030   1.199       .  T
C2031      C2032   1.207       .  T
C2033      C2034   1.225       .  T
C2035      C2036   1.219       .  T
C2037      C2038   1.208       .  T
C2039      C2040   1.206       .  T
C2041      C2042   1.220       .  T
C2043      C2044   1.211       .  T
C2045      C2046   1.214       .  T
C2047      C2048   1.206       .  T
C2049      C2050   1.220       .  T
C2051      C2052   1.204       .  T
C2053      C2054   1.208       .  T
C2055      C2056   1.218       .  T
C2057      C2058   1.206       .  T
C2059      C2060   1.223       .  T
C2061      C2062   1.207       .  T
C2063      C2064   1.206       .  T
C2065      C2066   1.208       .  T
C2067      C2068   1.209       .  T
C2069      C2070   1.209       .  T
C2071      C2072   1.205       .  T
C2073      C2074   1.206       .  T
C2075      C2076   1.213       .  T
C2077      C2078   1.213       .  T
C2079      C2080   1.226       .  T
C2081      C2082   1.228       .  T
C2083      C2084   1.223       .  T
C2085      C2086   1.223       .  T
C2087      C2088   1.208       .  T
C2089      C2090   1.220       .  T
C2091      C2092   1.216       .  T
C2093      C2094   1.217       .  T
C2095      C2096   1.223       .  T
C2097      C2098   1.227       .  T
C2099      C2100   1.227       .  T
C2101      C2102   1.205       .  T
C2103      C2104   1.225       .  T
C2105      C2106   1.226       .  T
C2107      C2108   1.217       .  T
C2109      C2110   1.214       .  T
C2111      C2112   1.226       .  T
C2113      C2114   1.229       .  T
C2115      C2116   1.223       .  T
C2117      C2118   1.210       .  T
C2119      C2120   1.213       .  T
C2121      C2122   1.223       .  T
C2123      C2124   1.213       .  T
C2125      C2126   1.225       .  T
C2127      C2128   1.229       .  T
C2129      C2130   1.212       .  T
C2131      C2132   1.218       .  T
C2133      C2134   1.204       .  T
C2135      C2136   1.228       .  T
C2137      C2138   1.235       .  T
C2139      C2140   1.206       .  T
C2141      C2142   1.229       .  T
C2143      C2144   1.219       .  T
C2145      C2146   1.223       .  T
C2147      C2148   1.231       .  T
C2149      C2150   1.224       .  T
C2151      C2152   1.214       .  T
C2153      C2154   1.227       .  T
C2155      C2156   1.213       .  T
C2157      C2158   1.224       .  T
C2159      C2160   1.216       .  T
C2161      C2162   1.200       .  T
C2163      C2164   1.227       .  T
C2165      C2166   1.206       .  T
C2167      C2168   1.215       .  T
C2169      C2170   1.225       .  T
C2171      C2172   1.210       .  T
C2173      C2174   1.215       .  T
C2175      C2176   1.226       .  T
C2177      C2178   1.233       .  T
C2179      C2180   1.232       .  T
C2181      C2182   1.224       .  T
C2183      C2184   1.232       .  T
C2185      C2186   1.230       .  T
C2187      C2188   1.225       .  T
C2189      C2190   1.223       .  T
C2191      C2192   1.205       .  T
C2193      C2194   1.216       .  T
C2195      C2196   1.204       .  T
C2197      C2198   1.211       .  T
C2199      C2200   1.224       .  T
C2201      C2202   1.212       .  T
C2203      C2204   1.229       .  T
C2205      C2206   1.225       .  T
C2207      C2208   1.211       .  T
C2209      C2210   1.215       .  T
C2211      C2212   1.221       .  T
C2213      C2214   1.208       .  T
C2215      C2216   1.226       .  T
C2217      C2218   1.227       .  T
C2219      C2220   1.214       .  T
