geometry optimzed in LAMMPS
_audit_creation_date              2020-11-30 
_audit_creation_method            'lammps2cif' 
_symmetry_space_group_name_H-M    'P1' 
_symmetry_Int_Tables_number       1 
_symmetry_cell_setting            triclinic 
loop_ 
_symmetry_equiv_pos_as_xyz 
  x,y,z 
_cell_length_a                    45.06552955 
_cell_length_b                    25.249670744929446 
_cell_length_c                    45.07819271597388 
_cell_angle_alpha                 90.01867809447631 
_cell_angle_beta                  89.97272818627623 
_cell_angle_gamma                 90.1294004238149 
loop_ 
_atom_site_label 
_atom_site_type_symbol 
_atom_site_fract_x 
_atom_site_fract_y 
_atom_site_fract_z 
_atom_site_charge 
C1          C  0.05649382  0.88521106  0.07203379     0.42400
N2          N  0.04734207  0.94437623  0.03867749     0.01300
C3          C  0.42182578  0.10457305  0.03413259    -0.06600
H4          H  0.40133673  0.90387755  0.01845236     0.06800
C5          C  0.46282543  0.91307740  0.42360318    -0.06900
Co6        Co  0.49288075  0.00637281  0.05447059     0.74200
N7          N  0.44020031  0.95074671  0.02853183    -0.26100
Co8        Co  0.44303567  0.00940010  0.49577824     0.74100
C9          C  0.43315843  0.89229999  0.43019241     0.42500
N10         N  0.03313554  0.94604787  0.44874257     0.00900
N11         N  0.44466655  0.95303752  0.46187990     0.01000
N12         N  0.45394760  0.10048605  0.07252184    -0.46900
H13         H  0.01351183  0.90511153  0.09728014     0.06800
N14         N  0.45909487  0.94998918  0.05095471     0.01300
N15         N  0.44767814  0.06789009  0.46367310     0.01100
C16         C  0.43939934  0.13389605  0.43507804     0.42700
N17         N  0.05211183  0.94344167  0.47105461    -0.25600
C18         C  0.03282495  0.10201651  0.07509521    -0.06500
N19         N  0.06707609  0.90822035  0.04692792    -0.46700
N20         N  0.42865480  0.10663803  0.45843429    -0.46900
C21         C  0.06115272  0.12461419  0.06535958     0.42400
N22         N  0.46062731  0.06536936  0.05169555     0.01300
N23         N  0.05515331  0.05878281  0.47159826    -0.25600
N24         N  0.02476103  0.94713156  0.05725228    -0.26100
N25         N  0.03642866  0.06076250  0.44916771     0.00900
H26         H  0.09474841  0.10277910  0.48215793     0.06800
H27         H  0.48080101  0.11597375  0.40678832     0.06900
N28         N  0.44181164  0.06626518  0.02931212    -0.26100
N29         N  0.46750189  0.95128746  0.44367404    -0.25700
N30         N  0.04962928  0.05982034  0.03696188     0.01300
C31         C  0.42905024  0.88619499  0.06016981     0.42700
C32         C  0.07164610  0.90458894  0.46529299    -0.07000
N33         N  0.47002554  0.06706715  0.44469107    -0.25700
H34         H  0.47812318  0.90280454  0.40609240     0.06900
N35         N  0.45298090  0.91245310  0.07054618    -0.47000
H36         H  0.09091873  0.89511868  0.47851785     0.06800
C37         C  0.06916105  0.12011141  0.43892723     0.42500
C38         C  0.02824206  0.91077413  0.07860149    -0.06500
Co39       Co  0.05157994  0.00115949  0.00467182     0.73800
N40         N  0.03886768  0.91135391  0.42749083    -0.46700
C41         C  0.42970483  0.12698787  0.06300635     0.42800
N42         N  0.07041629  0.09581036  0.04201457    -0.46700
Co43       Co  0.00180699  0.00634917  0.44609294     0.73900
C44         C  0.46664772  0.10747032  0.42559218    -0.07000
C45         C  0.42024118  0.91178500  0.03248108    -0.06500
N46         N  0.02736673  0.06232155  0.05599938    -0.26100
N47         N  0.42347419  0.91919948  0.45431131    -0.46800
H48         H  0.40317459  0.11347285  0.01994206     0.06800
C49         C  0.07617723  0.09568567  0.46750485    -0.07000
Cl50       Cl  0.99734795  0.00567386  0.00025685    -0.50000
C51         C  0.06266706  0.88336961  0.43638514     0.42600
H52         H  0.01924604  0.11254224  0.09398562     0.06800
N53         N  0.04421217  0.09623677  0.42893238    -0.46700
C54         C  0.30604265  0.62786705  0.18043418     0.42400
N55         N  0.29550468  0.56829199  0.21310895     0.01300
C56         C  0.17424025  0.39920701  0.21855141    -0.06600
H57         H  0.14723537  0.59458308  0.23244986     0.06800
C58         C  0.21040293  0.59988781  0.32587945    -0.06900
Co59       Co  0.24229001  0.50384306  0.19647777     0.74200
N60         N  0.18822727  0.55459322  0.22205728    -0.26100
Co61       Co  0.19295762  0.49841556  0.25536399     0.74100
C62         C  0.18229065  0.62279342  0.31585858     0.42500
N63         N  0.28171787  0.56894299  0.30131239     0.00900
N64         N  0.19417267  0.55785032  0.28741163     0.01000
N65         N  0.20600344  0.40531526  0.17986983    -0.46900
H66         H  0.26566486  0.60323845  0.15189226     0.06800
N67         N  0.20693085  0.55780061  0.19956098     0.01300
N68         N  0.19852828  0.44215225  0.28876578     0.01100
C69         C  0.19114662  0.37935973  0.31980876     0.42700
N70         N  0.30062672  0.57070803  0.27895690    -0.25600
C71         C  0.28240157  0.41112340  0.17546027    -0.06500
N72         N  0.31499089  0.60554124  0.20613307    -0.46700
N73         N  0.17999645  0.40318819  0.29545603    -0.46900
C74         C  0.31082913  0.38892860  0.18432902     0.42400
N75         N  0.21142614  0.44224587  0.20006162     0.01300
N76         N  0.30573087  0.45624510  0.28068067    -0.25600
N77         N  0.27378130  0.56454869  0.19361299    -0.26100
N78         N  0.28630836  0.45347410  0.30250417     0.00900
H79         H  0.34830415  0.42003218  0.27381314     0.06800
H80         H  0.23262673  0.40170875  0.34686061     0.06900
N81         N  0.19290804  0.43993540  0.22272230    -0.26100
N82         N  0.21607360  0.56052235  0.30672669    -0.25700
N83         N  0.29961068  0.45232518  0.21398583     0.01300
C84         C  0.17308548  0.61510704  0.18999593     0.42700
C85         C  0.31883649  0.61215711  0.28281427    -0.07000
N86         N  0.22081286  0.44575948  0.30762608    -0.25700
H87         H  0.22396857  0.61014848  0.34482064     0.06900
N88         N  0.19856296  0.59350362  0.17963685    -0.47000
H89         H  0.33748068  0.62244570  0.26879288     0.06800
C90         C  0.32022932  0.39760347  0.31500789     0.42500
C91         C  0.27858081  0.60021305  0.17201219    -0.06500
Co92       Co  0.30095062  0.51187867  0.24656599     0.73800
N93         N  0.28629015  0.60708648  0.32096030    -0.46700
C94         C  0.18289921  0.37635897  0.19003524     0.42800
N95         N  0.32044286  0.41671526  0.20813390    -0.46700
Co96       Co  0.25127467  0.50712181  0.30509693     0.73900
C97         C  0.21821023  0.40743851  0.32797846    -0.07000
C98         C  0.16624554  0.58945408  0.21806348    -0.06500
N99         N  0.27726112  0.44998565  0.19502792    -0.26100
N100        N  0.17362654  0.59432995  0.29201084    -0.46800
H101        H  0.15570598  0.38880181  0.23293475     0.06800
C102        C  0.32815911  0.42306380  0.28674372    -0.07000
Cl103      Cl  0.24689614  0.50527305  0.25084475    -0.50000
C104        C  0.30891700  0.63658532  0.31037736     0.42600
H105        H  0.26846915  0.40094418  0.15677956     0.06800
N106        N  0.29403465  0.41902644  0.32324377    -0.46700
C107        C  0.16616340  0.33759018  0.17175991     0.01300
C108        C  0.13539503  0.34396866  0.16694903     0.04100
C109        C  0.11947307  0.30606679  0.15046731    -0.11900
C110        C  0.13457937  0.26486480  0.13569123     0.23400
C111        C  0.16563541  0.26009046  0.13914926    -0.12500
C112        C  0.18111915  0.29497565  0.15812219     0.04800
C113        C  0.11761895  0.22755653  0.11631399     0.27200
C114        C  0.11332254  0.17430698  0.12499292    -0.13200
C115        C  0.09614049  0.14004898  0.10730150     0.05300
C116        C  0.08093659  0.15983015  0.08241759    -0.09200
C117        C  0.08540947  0.21258435  0.07338722     0.06200
C118        C  0.10438866  0.24598390  0.08979302    -0.13500
Br119      Br  0.18720088  0.20683009  0.11730157    -0.05600
Br120      Br  0.11520880  0.40731300  0.17984544     0.00000
Br121      Br  0.09460131  0.06527877  0.11616525     0.00500
Br122      Br  0.11204412  0.31715235  0.07601896    -0.03900
Br123      Br  0.22267645  0.28323073  0.16622163     0.00600
Br124      Br  0.07669827  0.31040567  0.14844736    -0.03200
Br125      Br  0.12958857  0.14855719  0.16183212    -0.04100
Br126      Br  0.06514409  0.23906946  0.03874920    -0.00100
C127        C  0.08768885  0.15729822  0.42111862     0.01300
C128        C  0.07409034  0.19845286  0.40471497     0.04100
C129        C  0.09144737  0.23325894  0.38750909    -0.11900
C130        C  0.12252914  0.22860051  0.38739701     0.23400
C131        C  0.13626126  0.18783941  0.40352982    -0.12500
C132        C  0.11895906  0.15133257  0.41965169     0.04800
C133        C  0.14082417  0.26676938  0.37031246     0.27200
C134        C  0.14980074  0.25460250  0.34115606    -0.13200
C135        C  0.16685944  0.29115252  0.32488141     0.05300
C136        C  0.17474934  0.34013589  0.33763363    -0.09200
C137        C  0.16578140  0.35231285  0.36687524     0.06200
C138        C  0.14898484  0.31547354  0.38321102    -0.13500
Br139      Br  0.17900528  0.18214055  0.40317329    -0.05600
Br140      Br  0.03177942  0.20912467  0.40625608     0.00000
Br141      Br  0.18013211  0.27362144  0.28534818     0.00500
Br142      Br  0.13659852  0.33186313  0.42317107    -0.03900
Br143      Br  0.13862677  0.09084286  0.43688043     0.00600
Br144      Br  0.07282956  0.28744152  0.36371886    -0.03200
Br145      Br  0.13831857  0.18808124  0.32348610    -0.04100
Br146      Br  0.17462932  0.42058621  0.38414114    -0.00100
C147        C  0.07228041  0.84457818  0.09030653     0.01300
C148        C  0.07375814  0.84886724  0.12167634     0.04100
C149        C  0.08757720  0.80886079  0.13862309    -0.11900
C150        C  0.10138416  0.76567259  0.12450006     0.23400
C151        C  0.10007808  0.76129871  0.09340193    -0.12500
C152        C  0.08553745  0.80033260  0.07646304     0.04800
C153        C  0.11920623  0.72709871  0.14209262     0.27200
C154        C  0.14820465  0.74068568  0.15113333    -0.13200
C155        C  0.16535917  0.70449898  0.16751642     0.05300
C156        C  0.15430940  0.65354649  0.17378069    -0.09200
C157        C  0.12510042  0.64008179  0.16516586     0.06200
C158        C  0.10748446  0.67704136  0.14968455    -0.13500
Br159      Br  0.11840221  0.70151746  0.07400558    -0.05600
Br160      Br  0.05982147  0.91150028  0.14187510     0.00000
Br161      Br  0.20295482  0.72628674  0.18373573     0.00500
Br162      Br  0.06720444  0.65944435  0.13901992    -0.03900
Br163      Br  0.08340909  0.79192321  0.03421194     0.00600
Br164      Br  0.08780780  0.81281580  0.18141892    -0.03200
Br165      Br  0.16446346  0.80908839  0.14098878    -0.04100
Br166      Br  0.10930773  0.57065027  0.17384306    -0.00100
C167        C  0.41234711  0.16499482  0.08137943     0.01300
C168        C  0.42706416  0.20568093  0.09720312     0.04100
C169        C  0.41076877  0.24117369  0.11502084    -0.11900
C170        C  0.37953744  0.23857673  0.11572992     0.23400
C171        C  0.36473412  0.19873524  0.09956960    -0.12500
C172        C  0.38106621  0.16059702  0.08363869     0.04800
C173        C  0.36225462  0.27749272  0.13361291     0.27200
C174        C  0.35025828  0.26272020  0.16134204    -0.13200
C175        C  0.33293851  0.29890696  0.17764803     0.05300
C176        C  0.32893163  0.35092592  0.16717994    -0.09200
C177        C  0.34139324  0.36609612  0.13975734     0.06200
C178        C  0.35751139  0.32918314  0.12275477    -0.13500
Br179      Br  0.32188373  0.19697345  0.09899507    -0.05600
Br180      Br  0.46948883  0.21468553  0.09373374     0.00000
Br181      Br  0.31302431  0.27635332  0.21332887     0.00500
Br182      Br  0.37276649  0.34907559  0.08433116    -0.03900
Br183      Br  0.36029132  0.09971669  0.06796443     0.00600
Br184      Br  0.43116289  0.29328486  0.13884506    -0.03200
Br185      Br  0.35783527  0.19301757  0.17707326    -0.04100
Br186      Br  0.33680245  0.43780158  0.12568642    -0.00100
C187        C  0.41454266  0.85471967  0.41240614     0.01300
C188        C  0.41745882  0.85094035  0.38102505     0.04100
C189        C  0.40066316  0.81346757  0.36503878    -0.11900
C190        C  0.37849902  0.78375372  0.37937313     0.23400
C191        C  0.37398966  0.78977040  0.41003948    -0.12500
C192        C  0.39275723  0.82302519  0.42672002     0.04800
C193        C  0.36003481  0.74590727  0.36214062     0.27200
C194        C  0.33721286  0.76466071  0.34348449    -0.13200
C195        C  0.32067803  0.72879626  0.32620429     0.05300
C196        C  0.32604800  0.67411375  0.32850080    -0.09200
C197        C  0.34828818  0.65517968  0.34766445     0.06200
C198        C  0.36575654  0.69110586  0.36391335    -0.13500
Br199      Br  0.34152344  0.75285879  0.42902361    -0.05600
Br200      Br  0.44132494  0.89988008  0.35826987     0.00000
Br201      Br  0.29113231  0.75437597  0.29884157     0.00500
Br202      Br  0.39824761  0.66547813  0.38775580    -0.03900
Br203      Br  0.38878059  0.82209128  0.46933734     0.01200
Br204      Br  0.40787258  0.80245613  0.32317776    -0.03200
Br205      Br  0.32881117  0.83947479  0.34144385    -0.04100
Br206      Br  0.35487155  0.57994127  0.35148815    -0.00100
C207        C  0.33817270  0.36026207  0.33365570     0.01300
C208        C  0.35721066  0.32246056  0.32026378     0.04100
C209        C  0.37506976  0.28924983  0.33786642    -0.11900
C210        C  0.37196682  0.28901145  0.36890770     0.23400
C211        C  0.35235845  0.32492947  0.38251017    -0.12500
C212        C  0.33642728  0.36178403  0.36518550     0.04800
C213        C  0.38875680  0.24965979  0.38693469     0.27200
C214        C  0.38002500  0.19590344  0.38684354    -0.13200
C215        C  0.39686488  0.15797802  0.40229632     0.05300
C216        C  0.42214145  0.17369690  0.41847550    -0.09200
C217        C  0.43040245  0.22748009  0.41933144     0.06200
C218        C  0.41406166  0.26530034  0.40320820    -0.13500
Br219      Br  0.34724391  0.32313173  0.42508010    -0.05600
Br220      Br  0.35736801  0.31083890  0.27801425     0.00000
Br221      Br  0.38574049  0.08411903  0.40070018     0.00500
Br222      Br  0.42667353  0.33835488  0.40292263    -0.03900
Br223      Br  0.31372462  0.41542765  0.38569191     0.00600
Br224      Br  0.40429370  0.24387984  0.31950138    -0.03200
Br225      Br  0.34502966  0.17413262  0.36532727    -0.04100
Br226      Br  0.46339560  0.24947168  0.44361138    -0.00100
C227        C  0.07978379  0.84735621  0.41687785     0.01300
C228        C  0.09004875  0.86463009  0.38884403     0.04100
C229        C  0.10608812  0.82977966  0.37040790    -0.11900
C230        C  0.11340647  0.77862950  0.38057726     0.23400
C231        C  0.10351575  0.76178733  0.40871106    -0.12500
C232        C  0.08572032  0.79523051  0.42614243     0.04800
C233        C  0.13074700  0.74165395  0.36161306     0.27200
C234        C  0.11641225  0.69865248  0.34774824    -0.13200
C235        C  0.13306667  0.66004091  0.33257298     0.05300
C236        C  0.16434860  0.66503869  0.33036365    -0.09200
C237        C  0.17834276  0.71029923  0.34264352     0.06200
C238        C  0.16167771  0.74776382  0.35870840    -0.13500
Br239      Br  0.11438940  0.69266073  0.42342042    -0.05600
Br240      Br  0.08302608  0.93635218  0.37581080     0.00000
Br241      Br  0.11241408  0.59913224  0.31668790     0.00500
Br242      Br  0.18132672  0.80704973  0.37745408    -0.03900
Br243      Br  0.06678004  0.76749458  0.46103361     0.00600
Br244      Br  0.11765350  0.85162153  0.33102290    -0.03200
Br245      Br  0.07373015  0.69223125  0.35026867    -0.04100
Br246      Br  0.22002479  0.72367410  0.33625645    -0.00100
C247        C  0.32472801  0.66474752  0.16223906     0.01300
C248        C  0.31155791  0.70445593  0.14433653     0.04100
C249        C  0.32936769  0.73898463  0.12734803    -0.11900
C250        C  0.36048874  0.73576822  0.12879746     0.23400
C251        C  0.37384424  0.69723902  0.14687211    -0.12500
C252        C  0.35621114  0.66089382  0.16283121     0.04800
C253        C  0.37907857  0.77364259  0.11157576     0.27200
C254        C  0.39229017  0.75797915  0.08458629    -0.13200
C255        C  0.40934683  0.79444630  0.06812034     0.05300
C256        C  0.41180417  0.84741727  0.07767533    -0.09200
C257        C  0.39829589  0.86317823  0.10446779     0.06200
C258        C  0.38291519  0.82591382  0.12188469    -0.13500
Br259      Br  0.41657501  0.69521423  0.15009397    -0.05600
Br260      Br  0.26929937  0.71489727  0.14369519     0.00000
Br261      Br  0.43069179  0.77120647  0.03342720     0.00500
Br262      Br  0.36754822  0.84600586  0.16021789    -0.03900
Br263      Br  0.37616270  0.60414057  0.18353998     0.00600
Br264      Br  0.31123691  0.79165744  0.10208246    -0.03200
Br265      Br  0.38690335  0.68661505  0.07021258    -0.04100
Br266      Br  0.39951154  0.93645534  0.11662433    -0.00100
C267        C  0.05649234  0.88520854  0.57203362     0.42400
N268        N  0.04734264  0.94437634  0.53867816     0.01300
C269        C  0.42182606  0.10457105  0.53413182    -0.06600
H270        H  0.40133957  0.90387126  0.51845334     0.06800
C271        C  0.46282599  0.91308851  0.92359964    -0.06900
Co272      Co  0.49288174  0.00637365  0.55447023     0.74200
N273        N  0.44020141  0.95074479  0.52853353    -0.26100
Co274      Co  0.44303549  0.00940489  0.99577760     0.74100
C275        C  0.43315905  0.89230933  0.93018798     0.42500
N276        N  0.03313519  0.94605549  0.94874170     0.00900
N277        N  0.44466653  0.95304527  0.96187722     0.01000
N278        N  0.45394913  0.10048657  0.57252010    -0.46900
H279        H  0.01351043  0.90511110  0.59727961     0.06800
N280        N  0.45909601  0.94998918  0.55095636     0.01300
N281        N  0.44767911  0.06789875  0.96367434     0.01100
C282        C  0.43940194  0.13390999  0.93508212     0.42700
N283        N  0.05211125  0.94344645  0.97105381    -0.25600
C284        C  0.03282556  0.10201977  0.57509144    -0.06500
N285        N  0.06707534  0.90821774  0.54692796    -0.46700
N286        N  0.42865662  0.10664865  0.95843691    -0.46900
C287        C  0.06115306  0.12461745  0.56535500     0.42400
N288        N  0.46062840  0.06536921  0.55169417     0.01300
N289        N  0.05515294  0.05878949  0.97160162    -0.25600
N290        N  0.02476172  0.94713293  0.55725298    -0.26100
N291        N  0.03642937  0.06077128  0.94917029     0.00900
H292        H  0.09474510  0.10278961  0.98216666     0.06800
H293        H  0.48080351  0.11598855  0.90679204     0.06900
N294        N  0.44181209  0.06626336  0.52931129    -0.26100
N295        N  0.46750204  0.95129720  0.94367152    -0.25700
N296        N  0.04962971  0.05982085  0.53695908     0.01300
C297        C  0.42905340  0.88619201  0.56017104     0.42700
C298        C  0.07164313  0.90458942  0.96529249    -0.07000
N299        N  0.47002674  0.06707735  0.94469259    -0.25700
H300        H  0.47812449  0.90281677  0.90608930     0.06900
N301        N  0.45298311  0.91245247  0.57054780    -0.47000
H302        H  0.09091442  0.89511408  0.97851811     0.06800
C303        C  0.06916051  0.12012559  0.93893485     0.42500
C304        C  0.02824154  0.91077436  0.57860174    -0.06500
Co305      Co  0.05158040  0.00115690  0.50467085     0.73800
N306        N  0.03886479  0.91135899  0.92749060    -0.46700
C307        C  0.42970597  0.12698742  0.56300507     0.42800
N308        N  0.07041660  0.09581160  0.54201071    -0.46700
Co309      Co  0.00180753  0.00635828  0.94609298     0.73900
C310        C  0.46664982  0.10748340  0.92559538    -0.07000
C311        C  0.42024349  0.91178131  0.53248259    -0.06500
N312        N  0.02736740  0.06232307  0.55599681    -0.26100
N313        N  0.42347457  0.91920709  0.95430752    -0.46800
H314        H  0.40317425  0.11346954  0.51994185     0.06800
C315        C  0.07617552  0.09569582  0.96751164    -0.07000
Cl316      Cl  0.99734825  0.00567017  0.50025663    -0.50000
C317        C  0.06266254  0.88337027  0.93638485     0.42600
H318        H  0.01924692  0.11254642  0.59398190     0.06800
N319        N  0.04421289  0.09624999  0.92893731    -0.46700
C320        C  0.30604297  0.62785775  0.68042782     0.42400
N321        N  0.29550372  0.56828838  0.71310551     0.01300
C322        C  0.17424492  0.39919165  0.71855426    -0.06600
H323        H  0.14723058  0.59456494  0.73243904     0.06800
C324        C  0.21039750  0.59989166  0.82587361    -0.06900
Co325      Co  0.24229086  0.50383267  0.69647564     0.74200
N326        N  0.18822533  0.55458069  0.72205096    -0.26100
Co327      Co  0.19295715  0.49840950  0.75536131     0.74100
C328        C  0.18228353  0.62279087  0.81585299     0.42500
N329        N  0.28171518  0.56895092  0.80130865     0.00900
N330        N  0.19416965  0.55784975  0.78740624     0.01000
N331        N  0.20600798  0.40529741  0.67987251    -0.46900
H332        H  0.26566680  0.60322230  0.65188526     0.06800
N333        N  0.20692957  0.55778670  0.69955509     0.01300
N334        N  0.19852879  0.44215240  0.78876652     0.01100
C335        C  0.19114920  0.37936556  0.81981369     0.42700
N336        N  0.30062506  0.57071358  0.77895399    -0.25600
C337        C  0.28240481  0.41111396  0.67546292    -0.06500
N338        N  0.31498988  0.60553690  0.70612846    -0.46700
N339        N  0.17999807  0.40318800  0.79545942    -0.46900
C340        C  0.31083275  0.38892253  0.68433286     0.42400
N341        N  0.21142896  0.44223248  0.70006224     0.01300
N342        N  0.30573045  0.45625037  0.78068165    -0.25600
N343        N  0.27378115  0.56454083  0.69360879    -0.26100
N344        N  0.28630755  0.45348229  0.80250489     0.00900
H345        H  0.34830228  0.42003129  0.77381472     0.06800
H346        H  0.23262899  0.40172331  0.84686353     0.06900
N347        N  0.19291073  0.43992357  0.72272289    -0.26100
N348        N  0.21607049  0.56052667  0.80672128    -0.25700
N349        N  0.29961247  0.45232215  0.71398701     0.01300
C350        C  0.17308100  0.61508449  0.68998460     0.42700
C351        C  0.31883561  0.61216155  0.78281192    -0.07000
N352        N  0.22081326  0.44576511  0.80762653    -0.25700
H353        H  0.22396201  0.61015449  0.84481518     0.06900
N354        N  0.19856032  0.59348383  0.67962819    -0.47000
H355        H  0.33748119  0.62244749  0.76879171     0.06800
C356        C  0.32022631  0.39760836  0.81500980     0.42500
C357        C  0.27858155  0.60020146  0.67200610    -0.06500
Co358      Co  0.30095029  0.51187992  0.74656494     0.73800
N359        N  0.28628750  0.60709455  0.82095649    -0.46700
C360        C  0.18290504  0.37633956  0.69003949     0.42800
N361        N  0.32044563  0.41671315  0.70813668    -0.46700
Co362      Co  0.25127314  0.50712880  0.80509468     0.73900
C363        C  0.21821208  0.40744797  0.82798120    -0.07000
C364        C  0.16624159  0.58943648  0.71805379    -0.06500
N365        N  0.27726326  0.44997835  0.69502890    -0.26100
N366        N  0.17362096  0.59432495  0.79200552    -0.46800
H367        H  0.15571077  0.38878685  0.73293784     0.06800
C368        C  0.32815750  0.42306688  0.78674545    -0.07000
Cl369      Cl  0.24689573  0.50527151  0.75084268    -0.50000
C370        C  0.30891552  0.63659154  0.81037450     0.42600
H371        H  0.26847288  0.40093135  0.65678244     0.06800
N372        N  0.29403221  0.41903435  0.82324491    -0.46700
C373        C  0.16616791  0.33757240  0.67176441     0.01300
C374        C  0.13540039  0.34395760  0.66695121     0.04100
C375        C  0.11947685  0.30605801  0.65046950    -0.11900
C376        C  0.13458130  0.26485242  0.63569471     0.23400
C377        C  0.16563673  0.26007077  0.63915535    -0.12500
C378        C  0.18112151  0.29495315  0.65812906     0.04800
C379        C  0.11761985  0.22754855  0.61631574     0.27200
C380        C  0.11332053  0.17429890  0.62499296    -0.13200
C381        C  0.09613960  0.14004408  0.60729865     0.05300
C382        C  0.08093802  0.15982932  0.58241435    -0.09200
C383        C  0.08541312  0.21258405  0.57338602     0.06200
C384        C  0.10439235  0.24597988  0.58979418    -0.13500
Br385      Br  0.18720010  0.20680448  0.61731005    -0.05600
Br386      Br  0.11521797  0.40730811  0.67984408     0.00000
Br387      Br  0.09459948  0.06527248  0.61615864     0.00500
Br388      Br  0.11205156  0.31714861  0.57602252    -0.03900
Br389      Br  0.22267709  0.28319865  0.66623270     0.00600
Br390      Br  0.07670242  0.31040496  0.64844803    -0.03200
Br391      Br  0.12958013  0.14854494  0.66183407    -0.04100
Br392      Br  0.06515099  0.23907483  0.53874747    -0.00100
C393        C  0.08769021  0.15731284  0.92112820     0.01300
C394        C  0.07409356  0.19846665  0.90472220     0.04100
C395        C  0.09145268  0.23327216  0.88751796    -0.11900
C396        C  0.12253447  0.22861392  0.88740966     0.23400
C397        C  0.13626471  0.18785325  0.90354426    -0.12500
C398        C  0.11896072  0.15134747  0.91966495     0.04800
C399        C  0.14083118  0.26677925  0.87032444     0.27200
C400        C  0.14980583  0.25460984  0.84116782    -0.13200
C401        C  0.16686394  0.29115786  0.82489126     0.05300
C402        C  0.17475395  0.34014294  0.83764123    -0.09200
C403        C  0.16578886  0.35232183  0.86688353     0.06200
C404        C  0.14899413  0.31548325  0.88322177    -0.13500
Br405      Br  0.17900862  0.18215091  0.90318976    -0.05600
Br406      Br  0.03178222  0.20913687  0.90625666     0.00000
Br407      Br  0.18013608  0.27362123  0.78535865     0.00500
Br408      Br  0.13661370  0.33187344  0.92318354    -0.03900
Br409      Br  0.13862707  0.09085859  0.93689625     0.00600
Br410      Br  0.07283778  0.28745143  0.86372302    -0.03200
Br411      Br  0.13832159  0.18808786  0.82350011    -0.04100
Br412      Br  0.17463754  0.42059692  0.88414705    -0.00100
C413        C  0.07227580  0.84456779  0.59030354     0.01300
C414        C  0.07375210  0.84884717  0.62167387     0.04100
C415        C  0.08756979  0.80883478  0.63861736    -0.11900
C416        C  0.10137777  0.76565138  0.62449073     0.23400
C417        C  0.10007261  0.76128662  0.59339220    -0.12500
C418        C  0.08553174  0.80032464  0.57645651     0.04800
C419        C  0.11920109  0.72707486  0.64208025     0.27200
C420        C  0.14820041  0.74066043  0.65111851    -0.13200
C421        C  0.16535557  0.70447364  0.66750090     0.05300
C422        C  0.15430514  0.65352247  0.67376761    -0.09200
C423        C  0.12509570  0.64005824  0.66515387     0.06200
C424        C  0.10747944  0.67701767  0.64967259    -0.13500
Br425      Br  0.11839924  0.70151318  0.57399091    -0.05600
Br426      Br  0.05981536  0.91147440  0.64187830     0.00000
Br427      Br  0.20295345  0.72625993  0.68371564     0.00500
Br428      Br  0.06719928  0.65942080  0.63900843    -0.03900
Br429      Br  0.08340020  0.79192298  0.53420494     0.00600
Br430      Br  0.08779773  0.81277536  0.68141362    -0.03200
Br431      Br  0.16445937  0.80906187  0.64097159    -0.04100
Br432      Br  0.10930284  0.57062745  0.67383237    -0.00100
C433        C  0.41234899  0.16499372  0.58137904     0.01300
C434        C  0.42706706  0.20567901  0.59720244     0.04100
C435        C  0.41077299  0.24116972  0.61502250    -0.11900
C436        C  0.37954181  0.23857131  0.61573453     0.23400
C437        C  0.36473736  0.19873009  0.59957496    -0.12500
C438        C  0.38106835  0.16059443  0.58364098     0.04800
C439        C  0.36226020  0.27748773  0.63361825     0.27200
C440        C  0.35026467  0.26271581  0.66134780    -0.13200
C441        C  0.33294413  0.29890210  0.67765327     0.05300
C442        C  0.32893654  0.35092058  0.66718470    -0.09200
C443        C  0.34139798  0.36609053  0.63976198     0.06200
C444        C  0.35751659  0.32917778  0.62275978    -0.13500
Br445      Br  0.32188692  0.19696502  0.59900579    -0.05600
Br446      Br  0.46949133  0.21468567  0.59372932     0.00000
Br447      Br  0.31302885  0.27634762  0.71333325     0.00500
Br448      Br  0.37277200  0.34907017  0.58433624    -0.03900
Br449      Br  0.36029254  0.09971613  0.56796544     0.00600
Br450      Br  0.43116878  0.29328027  0.63884575    -0.03200
Br451      Br  0.35784397  0.19301494  0.67708036    -0.04100
Br452      Br  0.33680543  0.43779484  0.62568982    -0.00100
C453        C  0.41454441  0.85472561  0.91240194     0.01300
C454        C  0.41746281  0.85094057  0.88102111     0.04100
C455        C  0.40066738  0.81346626  0.86503539    -0.11900
C456        C  0.37850284  0.78375375  0.87936987     0.23400
C457        C  0.37399159  0.78977508  0.91003551    -0.12500
C458        C  0.39275753  0.82303357  0.92671565     0.04800
C459        C  0.36003764  0.74590815  0.86213771     0.27200
C460        C  0.33721169  0.76466285  0.84348706    -0.13200
C461        C  0.32067371  0.72880001  0.82620879     0.05300
C462        C  0.32604714  0.67411772  0.82849919    -0.09200
C463        C  0.34829108  0.65518208  0.84765810     0.06200
C464        C  0.36576064  0.69110682  0.86390694    -0.13500
Br465      Br  0.34152368  0.75286665  0.92901873    -0.05600
Br466      Br  0.44133154  0.89987462  0.85826491     0.00000
Br467      Br  0.29111760  0.75438193  0.79885817     0.00500
Br468      Br  0.39825424  0.66547758  0.88774530    -0.03900
Br469      Br  0.38877521  0.82210923  0.96933236     0.01200
Br470      Br  0.40787564  0.80245340  0.82317429    -0.03200
Br471      Br  0.32880930  0.83947702  0.84145104    -0.04100
Br472      Br  0.35487621  0.57994340  0.85147725    -0.00100
C473        C  0.33816744  0.36026440  0.83365814     0.01300
C474        C  0.35720409  0.32246016  0.82026694     0.04100
C475        C  0.37506231  0.28924889  0.83787014    -0.11900
C476        C  0.37195897  0.28901162  0.86891146     0.23400
C477        C  0.35235047  0.32493061  0.88251312    -0.12500
C478        C  0.33642119  0.36178691  0.86518784     0.04800
C479        C  0.38875091  0.24966352  0.88693932     0.27200
C480        C  0.38002430  0.19590443  0.88684644    -0.13200
C481        C  0.39686751  0.15798269  0.90229844     0.05300
C482        C  0.42214240  0.17370740  0.91847845    -0.09200
C483        C  0.43039912  0.22749274  0.91933501     0.06200
C484        C  0.41405416  0.26531003  0.90321368    -0.13500
Br485      Br  0.34723345  0.32313286  0.92508273    -0.05600
Br486      Br  0.35736123  0.31083656  0.77801770     0.00000
Br487      Br  0.38575072  0.08412022  0.90069922     0.00500
Br488      Br  0.42665783  0.33836931  0.90293238    -0.03900
Br489      Br  0.31372096  0.41543504  0.88569327     0.00600
Br490      Br  0.40428637  0.24387839  0.81950561    -0.03200
Br491      Br  0.34503144  0.17412446  0.86532901    -0.04100
Br492      Br  0.46339386  0.24949072  0.94361099    -0.00100
C493        C  0.07977471  0.84734801  0.91687821     0.01300
C494        C  0.09003409  0.86461105  0.88884025     0.04100
C495        C  0.10606818  0.82975272  0.87040431    -0.11900
C496        C  0.11338813  0.77860586  0.88057769     0.23400
C497        C  0.10350215  0.76177337  0.90871496    -0.12500
C498        C  0.08571126  0.79522424  0.92614663     0.04800
C499        C  0.13073065  0.74162886  0.86161597     0.27200
C500        C  0.11639949  0.69862032  0.84775413    -0.13200
C501        C  0.13305665  0.66001718  0.83257481     0.05300
C502        C  0.16433762  0.66502794  0.83036090    -0.09200
C503        C  0.17832780  0.71029266  0.84264020     0.06200
C504        C  0.16166025  0.74775067  0.85870714    -0.13500
Br505      Br  0.11437730  0.69265097  0.92342934    -0.05600
Br506      Br  0.08301305  0.93633037  0.87580137     0.00000
Br507      Br  0.11240968  0.59910329  0.81668877     0.00500
Br508      Br  0.18130453  0.80704521  0.87744947    -0.03900
Br509      Br  0.06677758  0.76750153  0.96104453     0.00600
Br510      Br  0.11762531  0.85157998  0.83101430    -0.03200
Br511      Br  0.07371893  0.69217845  0.85028310    -0.04100
Br512      Br  0.22000757  0.72368246  0.83624923    -0.00100
C513        C  0.32472948  0.66473637  0.66223245     0.01300
C514        C  0.31156075  0.70444054  0.64432593     0.04100
C515        C  0.32937205  0.73896913  0.62733884    -0.11900
C516        C  0.36049306  0.73575895  0.62879482     0.23400
C517        C  0.37384705  0.69723428  0.64687360    -0.12500
C518        C  0.35621274  0.66088677  0.66282971     0.04800
C519        C  0.37908416  0.77363453  0.61157518     0.27200
C520        C  0.39230434  0.75796850  0.58459029    -0.13200
C521        C  0.40935987  0.79443804  0.56812482     0.05300
C522        C  0.41180844  0.84741240  0.57767590    -0.09200
C523        C  0.39829208  0.86317570  0.60446368     0.06200
C524        C  0.38291224  0.82591012  0.62188049    -0.13500
Br525      Br  0.41657723  0.69521965  0.65010591    -0.05600
Br526      Br  0.26930190  0.71487676  0.64367712     0.00000
Br527      Br  0.43071316  0.77119922  0.53343648     0.00500
Br528      Br  0.36753510  0.84600691  0.66020877    -0.03900
Br529      Br  0.37616331  0.60413505  0.68354077     0.00600
Br530      Br  0.31124326  0.79163330  0.60206614    -0.03200
Br531      Br  0.38693082  0.68659779  0.57022200    -0.04100
Br532      Br  0.39949525  0.93645729  0.61661291    -0.00100
C533        C  0.55649536  0.88521577  0.07202759     0.42400
N534        N  0.54734338  0.94438688  0.03867515     0.01300
C535        C  0.92182683  0.10456904  0.03412372    -0.06600
H536        H  0.90133631  0.90386699  0.01844933     0.06800
C537        C  0.96283388  0.91306510  0.42360287    -0.06900
Co538      Co  0.99287840  0.00636451  0.05446989     0.74200
N539        N  0.94019979  0.95073702  0.02852871    -0.26100
Co540      Co  0.94303624  0.00938986  0.49577492     0.74100
C541        C  0.93316803  0.89228172  0.43019109     0.42500
N542        N  0.53313231  0.94605227  0.44874282     0.00900
N543        N  0.94466991  0.95302655  0.46187668     0.01000
N544        N  0.95394581  0.10048547  0.07251548    -0.46900
H545        H  0.51351407  0.90511310  0.09727620     0.06800
N546        N  0.95909359  0.94998098  0.05095220     0.01300
N547        N  0.94767901  0.06788082  0.46367073     0.01100
C548        C  0.93939839  0.13388869  0.43507693     0.42700
N549        N  0.55210897  0.94344879  0.47105462    -0.25600
C550        C  0.53282968  0.10202591  0.07509282    -0.06500
N551        N  0.56707700  0.90822859  0.04692266    -0.46700
N552        N  0.92865468  0.10662716  0.45843221    -0.46900
C553        C  0.56115662  0.12462397  0.06535459     0.42400
N554        N  0.96062487  0.06536214  0.05169230     0.01300
N555        N  0.55515277  0.05878784  0.47159363    -0.25600
N556        N  0.52476312  0.94714034  0.05725080    -0.26100
N557        N  0.53642668  0.06076601  0.44916426     0.00900
H558        H  0.59475261  0.10277660  0.48214615     0.06800
H559        H  0.98080116  0.11597086  0.40678739     0.06900
N560        N  0.94181068  0.06625631  0.02930762    -0.26100
N561        N  0.96750632  0.95127932  0.44367206    -0.25700
N562        N  0.54963057  0.05983021  0.03695805     0.01300
C563        C  0.92904924  0.88618719  0.06016782     0.42700
C564        C  0.57164315  0.90459598  0.46529499    -0.07000
N565        N  0.97002704  0.06706117  0.44468954    -0.25700
H566        H  0.97813412  0.90279139  0.40609452     0.06900
N567        N  0.95297941  0.91244617  0.07054411    -0.47000
H568        H  0.59091602  0.89512808  0.47852007     0.06800
C569        C  0.56916165  0.12010642  0.43891728     0.42500
C570        C  0.52824430  0.91077925  0.07859794    -0.06500
Co571      Co  0.55157952  0.00116833  0.00466927     0.73800
N572        N  0.53886486  0.91135649  0.42749209    -0.46700
C573        C  0.92970505  0.12698943  0.06299617     0.42800
N574        N  0.57041803  0.09582016  0.04200882    -0.46700
Co575      Co  0.50180413  0.00635426  0.44609310     0.73900
C576        C  0.96664799  0.10746534  0.42559110    -0.07000
C577        C  0.92024063  0.91177533  0.03247828    -0.06500
N578        N  0.52736964  0.06233082  0.05599753    -0.26100
N579        N  0.92348039  0.91918232  0.45430840    -0.46800
H580        H  0.90317807  0.11347081  0.01993040     0.06800
C581        C  0.57617896  0.09568526  0.46749587    -0.07000
Cl582      Cl  0.49734748  0.00568236  0.00025726    -0.50000
C583        C  0.56266403  0.88337356  0.43638860     0.42600
H584        H  0.51925249  0.11255162  0.09398458     0.06800
N585        N  0.54421063  0.09623450  0.42892597    -0.46700
C586        C  0.80605045  0.62786199  0.18044095     0.42400
N587        N  0.79550994  0.56827807  0.21310975     0.01300
C588        C  0.67422870  0.39923452  0.21854891    -0.06600
H589        H  0.64724295  0.59461918  0.23244392     0.06800
C590        C  0.71040890  0.59989811  0.32588116    -0.06900
Co591      Co  0.74228980  0.50384728  0.19647636     0.74200
N592        N  0.68823213  0.55461805  0.22205470    -0.26100
Co593      Co  0.69295478  0.49843915  0.25536164     0.74100
C594        C  0.68229912  0.62281505  0.31586142     0.42500
N595        N  0.78172151  0.56893541  0.30131072     0.00900
N596        N  0.69417583  0.55787397  0.28740992     0.01000
N597        N  0.70599567  0.40532914  0.17986967    -0.46900
H598        H  0.76567202  0.60324519  0.15189634     0.06800
N599        N  0.70693638  0.55781688  0.19955857     0.01300
N600        N  0.69851895  0.44217276  0.28876332     0.01100
C601        C  0.69113660  0.37937214  0.31980105     0.42700
N602        N  0.80063117  0.57069143  0.27895577    -0.25600
C603        C  0.78239567  0.41112025  0.17545540    -0.06500
N604        N  0.81499716  0.60552794  0.20613805    -0.46700
N605        N  0.67998611  0.40320845  0.29545070    -0.46900
C606        C  0.81082240  0.38891935  0.18432300     0.42400
N607        N  0.71141951  0.44226128  0.20006013     0.01300
N608        N  0.80572228  0.45622613  0.28068113    -0.25600
N609        N  0.77378684  0.56454286  0.19361316    -0.26100
N610        N  0.78629873  0.45346510  0.30250410     0.00900
H611        H  0.84829004  0.41999012  0.27381556     0.06800
H612        H  0.73261998  0.40170604  0.34685166     0.06900
N613        N  0.69289965  0.43995851  0.22271971    -0.26100
N614        N  0.71607650  0.56053597  0.30672553    -0.25700
N615        N  0.79960497  0.45230971  0.21398495     0.01300
C616        C  0.67309639  0.61513137  0.18999029     0.42700
C617        C  0.81884481  0.61213525  0.28281141    -0.07000
N618        N  0.72080431  0.44577192  0.30762312    -0.25700
H619        H  0.72397440  0.61014738  0.34482425     0.06900
N620        N  0.69857163  0.59351836  0.17963232    -0.47000
H621        H  0.83748996  0.62241659  0.26878956     0.06800
C622        C  0.82021007  0.39757846  0.31500988     0.42500
C623        C  0.77858822  0.60021212  0.17201546    -0.06500
Co624      Co  0.80094958  0.51186159  0.24656587     0.73800
N625        N  0.78629700  0.60708054  0.32095691    -0.46700
C626        C  0.68288838  0.37638033  0.19003448     0.42800
N627        N  0.82043614  0.41669924  0.20813039    -0.46700
Co628      Co  0.75127170  0.50712461  0.30509540     0.73900
C629        C  0.71820148  0.40744529  0.32797187    -0.07000
C630        C  0.66625372  0.58948480  0.21805902    -0.06500
N631        N  0.77725595  0.44997829  0.19502613    -0.26100
N632        N  0.67363302  0.59435886  0.29201139    -0.46800
H633        H  0.65569346  0.38883404  0.23293208     0.06800
C634        C  0.82814511  0.42303374  0.28674552    -0.07000
Cl635      Cl  0.74689432  0.50527623  0.25084334    -0.50000
C636        C  0.80892703  0.63657058  0.31037286     0.42600
H637        H  0.76846440  0.40094996  0.15677238     0.06800
N638        N  0.79401865  0.41901450  0.32324439    -0.46700
C639        C  0.66615565  0.33760399  0.17176155     0.01300
C640        C  0.63538748  0.34397654  0.16694716     0.04100
C641        C  0.61946971  0.30607098  0.15046407    -0.11900
C642        C  0.63458020  0.26487129  0.13569020     0.23400
C643        C  0.66563587  0.26010118  0.13915316    -0.12500
C644        C  0.68111507  0.29498944  0.15812787     0.04800
C645        C  0.61762428  0.22756177  0.11630989     0.27200
C646        C  0.61332832  0.17431138  0.12498735    -0.13200
C647        C  0.59614757  0.14005410  0.10729431     0.05300
C648        C  0.58094272  0.15983753  0.08241155    -0.09200
C649        C  0.58541634  0.21259188  0.07338180     0.06200
C650        C  0.60439590  0.24598988  0.08978814    -0.13500
Br651      Br  0.68720740  0.20684382  0.11730921    -0.05600
Br652      Br  0.61519595  0.40731724  0.17984068     0.00000
Br653      Br  0.59461162  0.06528218  0.11615400     0.00500
Br654      Br  0.61205377  0.31715778  0.07601448    -0.03900
Br655      Br  0.72267108  0.28324799  0.16623587     0.00600
Br656      Br  0.57669490  0.31040216  0.14843849    -0.03200
Br657      Br  0.62959155  0.14855985  0.16182736    -0.04100
Br658      Br  0.56515094  0.23907985  0.03874453    -0.00100
C659        C  0.58768882  0.15728886  0.42110544     0.01300
C660        C  0.57409022  0.19844912  0.40470652     0.04100
C661        C  0.59144640  0.23325423  0.38749930    -0.11900
C662        C  0.62252768  0.22858577  0.38737905     0.23400
C663        C  0.63625999  0.18782035  0.40350835    -0.12500
C664        C  0.61895819  0.15131604  0.41963250     0.04800
C665        C  0.64082216  0.26675835  0.37029656     0.27200
C666        C  0.64979259  0.25460527  0.34113637    -0.13200
C667        C  0.66684738  0.29116385  0.32486335     0.05300
C668        C  0.67474141  0.34013989  0.33762213    -0.09200
C669        C  0.66578204  0.35230022  0.36686859     0.06200
C670        C  0.64898727  0.31545456  0.38320139    -0.13500
Br671      Br  0.67900379  0.18211900  0.40314914    -0.05600
Br672      Br  0.53178068  0.20913172  0.40625798     0.00000
Br673      Br  0.68010983  0.27365378  0.28532360     0.00500
Br674      Br  0.63660871  0.33182500  0.42316639    -0.03900
Br675      Br  0.63862441  0.09082247  0.43685854     0.00600
Br676      Br  0.57282831  0.28745726  0.36372384    -0.03200
Br677      Br  0.63830839  0.18809109  0.32345946    -0.04100
Br678      Br  0.67464001  0.42055925  0.38414707    -0.00100
C679        C  0.57228094  0.84457568  0.09029559     0.01300
C680        C  0.57375582  0.84885121  0.12166610     0.04100
C681        C  0.58757397  0.80883830  0.13860830    -0.11900
C682        C  0.60138446  0.76565914  0.12448034     0.23400
C683        C  0.60008115  0.76129801  0.09338160    -0.12500
C684        C  0.58554067  0.80033761  0.07644675     0.04800
C685        C  0.61921152  0.72708848  0.14206934     0.27200
C686        C  0.64820724  0.74068850  0.15111234    -0.13200
C687        C  0.66536382  0.70451261  0.16750043     0.05300
C688        C  0.65431889  0.65355815  0.17376779    -0.09200
C689        C  0.62511335  0.64007883  0.16514854     0.06200
C690        C  0.60749538  0.67702706  0.14966117    -0.13500
Br691      Br  0.61840956  0.70152759  0.07397904    -0.05600
Br692      Br  0.55981945  0.91147653  0.14187272     0.00000
Br693      Br  0.70295451  0.72631917  0.18372298     0.00500
Br694      Br  0.56722030  0.65940921  0.13898873    -0.03900
Br695      Br  0.58341893  0.79194826  0.03419357     0.00600
Br696      Br  0.58780013  0.81277318  0.18140488    -0.03200
Br697      Br  0.66445879  0.80909574  0.14096517    -0.04100
Br698      Br  0.60932754  0.57064416  0.17383029    -0.00100
C699        C  0.91234798  0.16500580  0.08136397     0.01300
C700        C  0.92706557  0.20569674  0.09718326     0.04100
C701        C  0.91077069  0.24119631  0.11499749    -0.11900
C702        C  0.87953928  0.23859937  0.11570820     0.23400
C703        C  0.86473537  0.19875701  0.09954901    -0.12500
C704        C  0.88106671  0.16061350  0.08362133     0.04800
C705        C  0.86225656  0.27750981  0.13359563     0.27200
C706        C  0.85026066  0.26272645  0.16132318    -0.13200
C707        C  0.83293746  0.29890386  0.17763209     0.05300
C708        C  0.82892683  0.35092522  0.16716920    -0.09200
C709        C  0.84138914  0.36610721  0.13974881     0.06200
C710        C  0.85751065  0.32920316  0.12274295    -0.13500
Br711      Br  0.82188492  0.19700117  0.09897162    -0.05600
Br712      Br  0.96949040  0.21469707  0.09371274     0.00000
Br713      Br  0.81302359  0.27633344  0.21330961     0.00500
Br714      Br  0.87276715  0.34911224  0.08432264    -0.03900
Br715      Br  0.86028962  0.09973386  0.06794900     0.00600
Br716      Br  0.93116582  0.29331668  0.13881449    -0.03200
Br717      Br  0.85784347  0.19302154  0.17704866    -0.04100
Br718      Br  0.83679521  0.43781677  0.12568566    -0.00100
C719        C  0.91455609  0.85469551  0.41240440     0.01300
C720        C  0.91747351  0.85091673  0.38102330     0.04100
C721        C  0.90067828  0.81344485  0.36503589    -0.11900
C722        C  0.87851643  0.78372515  0.37936976     0.23400
C723        C  0.87400846  0.78973514  0.41003674    -0.12500
C724        C  0.89277287  0.82299526  0.42671770     0.04800
C725        C  0.86005193  0.74588196  0.36213540     0.27200
C726        C  0.83722658  0.76463886  0.34348447    -0.13200
C727        C  0.82069017  0.72877806  0.32620350     0.05300
C728        C  0.82606177  0.67409546  0.32849466    -0.09200
C729        C  0.84830748  0.65515799  0.34765074     0.06200
C730        C  0.86577751  0.69108106  0.36389992    -0.13500
Br731      Br  0.84154800  0.75280748  0.42902106    -0.05600
Br732      Br  0.94134210  0.89985414  0.35826917     0.00000
Br733      Br  0.79114194  0.75436314  0.29884494     0.00500
Br734      Br  0.89827657  0.66545056  0.38773036    -0.03900
Br735      Br  0.88879437  0.82206321  0.46933480     0.01200
Br736      Br  0.90788363  0.80244441  0.32317317    -0.03200
Br737      Br  0.82882341  0.83945297  0.34145073    -0.04100
Br738      Br  0.85489612  0.57991919  0.35146340    -0.00100
C739        C  0.83814580  0.36022731  0.33365854     0.01300
C740        C  0.85717584  0.32241359  0.32026698     0.04100
C741        C  0.87503238  0.28919853  0.33786943    -0.11900
C742        C  0.87193363  0.28896822  0.36891132     0.23400
C743        C  0.85232801  0.32489199  0.38251340    -0.12500
C744        C  0.83640087  0.36175170  0.36518830     0.04800
C745        C  0.88872991  0.24962620  0.38693947     0.27200
C746        C  0.88000759  0.19586495  0.38684958    -0.13200
C747        C  0.89685810  0.15794808  0.40229745     0.05300
C748        C  0.92213481  0.17368018  0.41847256    -0.09200
C749        C  0.93038624  0.22746823  0.41932777     0.06200
C750        C  0.91403495  0.26528029  0.40320888    -0.13500
Br751      Br  0.84721139  0.32309519  0.42508308    -0.05600
Br752      Br  0.85732508  0.31078393  0.27801831     0.00000
Br753      Br  0.88574893  0.08408201  0.40069865     0.00500
Br754      Br  0.92663239  0.33834306  0.40292419    -0.03900
Br755      Br  0.81370571  0.41540661  0.38569386     0.00600
Br756      Br  0.90424767  0.24381333  0.31950241    -0.03200
Br757      Br  0.84501017  0.17407575  0.36534244    -0.04100
Br758      Br  0.96338224  0.24947727  0.44359885    -0.00100
C759        C  0.57978422  0.84736389  0.41688374     0.01300
C760        C  0.59006731  0.86465026  0.38885932     0.04100
C761        C  0.60611529  0.82980577  0.37042748    -0.11900
C762        C  0.61342074  0.77864638  0.38059195     0.23400
C763        C  0.60351010  0.76179093  0.40871653    -0.12500
C764        C  0.58570903  0.79523160  0.42614348     0.04800
C765        C  0.63076235  0.74167159  0.36162846     0.27200
C766        C  0.61642425  0.69868943  0.34774869    -0.13200
C767        C  0.63307629  0.66007915  0.33256997     0.05300
C768        C  0.66435996  0.66506062  0.33037084    -0.09200
C769        C  0.67835832  0.71030488  0.34266562     0.06200
C770        C  0.66169502  0.74776601  0.35873508    -0.13500
Br771      Br  0.61436202  0.69264851  0.42341846    -0.05600
Br772      Br  0.58305419  0.93637938  0.37583297     0.00000
Br773      Br  0.61241593  0.59919549  0.31666501     0.00500
Br774      Br  0.68134854  0.80702732  0.37750069    -0.03900
Br775      Br  0.56674617  0.76748772  0.46102121     0.00600
Br776      Br  0.61770887  0.85166824  0.33105431    -0.03200
Br777      Br  0.57373970  0.69229468  0.35025174    -0.04100
Br778      Br  0.72004394  0.72366657  0.33629209    -0.00100
C779        C  0.82473532  0.66475291  0.16225181     0.01300
C780        C  0.81156387  0.70445744  0.14434727     0.04100
C781        C  0.82937246  0.73898872  0.12735948    -0.11900
C782        C  0.86049338  0.73577880  0.12881126     0.23400
C783        C  0.87385048  0.69725868  0.14689049    -0.12500
C784        C  0.85621908  0.66091209  0.16285038     0.04800
C785        C  0.87908147  0.77364886  0.11158558     0.27200
C786        C  0.89229029  0.75797850  0.08459614    -0.13200
C787        C  0.90934452  0.79444183  0.06812532     0.05300
C788        C  0.91180226  0.84741520  0.07767588    -0.09200
C789        C  0.89829695  0.86318273  0.10446868     0.06200
C790        C  0.88291871  0.82592237  0.12189022    -0.13500
Br791      Br  0.91658130  0.69524719  0.15011574    -0.05600
Br792      Br  0.76930498  0.71489274  0.14370254     0.00000
Br793      Br  0.93068642  0.77119307  0.03343229     0.00500
Br794      Br  0.86755691  0.84602230  0.16022416    -0.03900
Br795      Br  0.87617550  0.60417750  0.18357058     0.00600
Br796      Br  0.81124025  0.79165564  0.10209088    -0.03200
Br797      Br  0.88690417  0.68660919  0.07023021    -0.04100
Br798      Br  0.89951396  0.93646260  0.11662001    -0.00100
C799        C  0.55649393  0.88521338  0.57202744     0.42400
N800        N  0.54734399  0.94438704  0.53867581     0.01300
C801        C  0.92182713  0.10456717  0.53412297    -0.06600
H802        H  0.90133924  0.90386068  0.51845026     0.06800
C803        C  0.96283444  0.91307621  0.92359926    -0.06900
Co804      Co  0.99287935  0.00636525  0.55446958     0.74200
N805        N  0.94020086  0.95073508  0.52853040    -0.26100
Co806      Co  0.94303608  0.00939460  0.99577426     0.74100
C807        C  0.93316864  0.89229108  0.93018656     0.42500
N808        N  0.53313196  0.94605995  0.94874197     0.00900
N809        N  0.94466990  0.95303424  0.96187396     0.01000
N810        N  0.95394731  0.10048597  0.57251382    -0.46900
H811        H  0.51351274  0.90511288  0.59727569     0.06800
N812        N  0.95909470  0.94998087  0.55095382     0.01300
N813        N  0.94767998  0.06788943  0.96367193     0.01100
C814        C  0.93940101  0.13390263  0.93508099     0.42700
N815        N  0.55210839  0.94345361  0.97105386    -0.25600
C816        C  0.53283037  0.10202926  0.57508898    -0.06500
N817        N  0.56707629  0.90822605  0.54692272    -0.46700
N818        N  0.92865651  0.10663774  0.95843479    -0.46900
C819        C  0.56115706  0.12462725  0.56534992     0.42400
N820        N  0.96062590  0.06536193  0.55169100     0.01300
N821        N  0.55515241  0.05879453  0.97159708    -0.25600
N822        N  0.52476386  0.94714181  0.55725149    -0.26100
N823        N  0.53642740  0.06077484  0.94916693     0.00900
H824        H  0.59474936  0.10278700  0.98215499     0.06800
H825        H  0.98080367  0.11598564  0.90679108     0.06900
N826        N  0.94181111  0.06625452  0.52930684    -0.26100
N827        N  0.96750648  0.95128901  0.94366951    -0.25700
N828        N  0.54963105  0.05983077  0.53695517     0.01300
C829        C  0.92905242  0.88618397  0.56016889     0.42700
C830        C  0.57164021  0.90459656  0.96529451    -0.07000
N831        N  0.97002824  0.06707131  0.94469102    -0.25700
H832        H  0.97813547  0.90280365  0.90609133     0.06900
N833        N  0.95298162  0.91244530  0.57054564    -0.47000
H834        H  0.59091175  0.89512360  0.97852036     0.06800
C835        C  0.56916116  0.12012060  0.93892500     0.42500
C836        C  0.52824383  0.91077963  0.57859822    -0.06500
Co837      Co  0.55158001  0.00116574  0.50466825     0.73800
N838        N  0.53886201  0.91136169  0.92749186    -0.46700
C839        C  0.92970621  0.12698906  0.56299493     0.42800
N840        N  0.57041843  0.09582140  0.54200487    -0.46700
Co841      Co  0.50180466  0.00636342  0.94609318     0.73900
C842        C  0.96665009  0.10747839  0.92559427    -0.07000
C843        C  0.92024291  0.91177156  0.53247969    -0.06500
N844        N  0.52737037  0.06233242  0.55599488    -0.26100
N845        N  0.92348078  0.91918991  0.95430453    -0.46800
H846        H  0.90317786  0.11346771  0.51993020     0.06800
C847        C  0.57617728  0.09569536  0.96750275    -0.07000
Cl848      Cl  0.49734780  0.00567865  0.50025700    -0.50000
C849        C  0.56265956  0.88337438  0.93638831     0.42600
H850        H  0.51925354  0.11255583  0.59398070     0.06800
N851        N  0.54421139  0.09624778  0.92893099    -0.46700
C852        C  0.80605071  0.62785271  0.68043454     0.42400
N853        N  0.79550893  0.56827450  0.71310629     0.01300
C854        C  0.67423340  0.39921907  0.71855181    -0.06600
H855        H  0.64723809  0.59460109  0.73243308     0.06800
C856        C  0.71040341  0.59990196  0.82587530    -0.06900
Co857      Co  0.74229063  0.50383684  0.69647422     0.74200
N858        N  0.68823016  0.55460548  0.72204835    -0.26100
Co859      Co  0.69295427  0.49843309  0.75535896     0.74100
C860        C  0.68229196  0.62281250  0.81585583     0.42500
N861        N  0.78171875  0.56894347  0.80130694     0.00900
N862        N  0.69417275  0.55787343  0.78740451     0.01000
N863        N  0.70600023  0.40531118  0.67987239    -0.46900
H864        H  0.76567383  0.60322900  0.65188914     0.06800
N865        N  0.70693508  0.55780290  0.69955265     0.01300
N866        N  0.69851943  0.44217292  0.78876407     0.01100
C867        C  0.69113915  0.37937799  0.81980599     0.42700
N868        N  0.80062943  0.57069710  0.77895282    -0.25600
C869        C  0.78239892  0.41111079  0.67545810    -0.06500
N870        N  0.81499608  0.60552366  0.70613340    -0.46700
N871        N  0.67998771  0.40320827  0.79545411    -0.46900
C872        C  0.81082602  0.38891329  0.68432690     0.42400
N873        N  0.71142232  0.44224782  0.70006077     0.01300
N874        N  0.80572184  0.45623155  0.78068215    -0.25600
N875        N  0.77378665  0.56453498  0.69360894    -0.26100
N876        N  0.78629790  0.45347343  0.80250484     0.00900
H877        H  0.84828814  0.41998949  0.77381724     0.06800
H878        H  0.73262217  0.40172069  0.84685460     0.06900
N879        N  0.69290234  0.43994664  0.72272032    -0.26100
N880        N  0.71607334  0.56054032  0.80672011    -0.25700
N881        N  0.79960674  0.45230672  0.71398616     0.01300
C882        C  0.67309192  0.61510880  0.68997891     0.42700
C883        C  0.81884384  0.61213986  0.78280899    -0.07000
N884        N  0.72080468  0.44577759  0.80762358    -0.25700
H885        H  0.72396783  0.61015344  0.84481884     0.06900
N886        N  0.69856900  0.59349851  0.67962363    -0.47000
H887        H  0.83749027  0.62241853  0.76878837     0.06800
C888        C  0.82020706  0.39758358  0.81501186     0.42500
C889        C  0.77858892  0.60020050  0.67200934    -0.06500
Co890      Co  0.80094921  0.51186293  0.74656482     0.73800
N891        N  0.78629426  0.60708879  0.82095303    -0.46700
C892        C  0.68289423  0.37636078  0.69003880     0.42800
N893        N  0.82043890  0.41669720  0.70813322    -0.46700
Co894      Co  0.75127012  0.50713168  0.80509314     0.73900
C895        C  0.71820329  0.40745481  0.82797464    -0.07000
C896        C  0.66624976  0.58946718  0.71804928    -0.06500
N897        N  0.77725808  0.44997098  0.69502713    -0.26100
N898        N  0.67362738  0.59435386  0.79200607    -0.46800
H899        H  0.65569823  0.38881892  0.73293529     0.06800
C900        C  0.82814351  0.42303702  0.78674731    -0.07000
Cl901      Cl  0.74689387  0.50527472  0.75084127    -0.50000
C902        C  0.80892543  0.63657701  0.81036991     0.42600
H903        H  0.76846812  0.40093706  0.65677529     0.06800
N904        N  0.79401620  0.41902259  0.82324557    -0.46700
C905        C  0.66616020  0.33758603  0.67176614     0.01300
C906        C  0.63539288  0.34396524  0.66694946     0.04100
C907        C  0.61947354  0.30606196  0.65046634    -0.11900
C908        C  0.63458222  0.26485877  0.63569370     0.23400
C909        C  0.66563728  0.26008141  0.63915926    -0.12500
C910        C  0.68111750  0.29496682  0.65813481     0.04800
C911        C  0.61762529  0.22755370  0.61631161     0.27200
C912        C  0.61332652  0.17430312  0.62498726    -0.13200
C913        C  0.59614692  0.14004906  0.60729127     0.05300
C914        C  0.58094430  0.15983666  0.58240823    -0.09200
C915        C  0.58542006  0.21259161  0.57338059     0.06200
C916        C  0.60439964  0.24598586  0.58978933    -0.13500
Br917      Br  0.68720676  0.20681829  0.61731764    -0.05600
Br918      Br  0.61520509  0.40731198  0.67983953     0.00000
Br919      Br  0.59461021  0.06527567  0.61614701     0.00500
Br920      Br  0.61206119  0.31715413  0.57601815    -0.03900
Br921      Br  0.72267177  0.28321578  0.66624705     0.00600
Br922      Br  0.57669908  0.31040104  0.64843931    -0.03200
Br923      Br  0.62958344  0.14854724  0.66182909    -0.04100
Br924      Br  0.56515786  0.23908536  0.53874284    -0.00100
C925        C  0.58769021  0.15730357  0.92111518     0.01300
C926        C  0.57409345  0.19846309  0.90471402     0.04100
C927        C  0.59145168  0.23326767  0.88750841    -0.11900
C928        C  0.62253297  0.22859937  0.88739185     0.23400
C929        C  0.63626344  0.18783436  0.90352290    -0.12500
C930        C  0.61895989  0.15133104  0.91964586     0.04800
C931        C  0.64082910  0.26676840  0.87030864     0.27200
C932        C  0.64979769  0.25461265  0.84114827    -0.13200
C933        C  0.66685187  0.29116919  0.82487330     0.05300
C934        C  0.67474597  0.34014701  0.83762978    -0.09200
C935        C  0.66578938  0.35230940  0.86687689     0.06200
C936        C  0.64899643  0.31546453  0.88321218    -0.13500
Br937      Br  0.67900714  0.18212962  0.90316570    -0.05600
Br938      Br  0.53178349  0.20914421  0.90625903     0.00000
Br939      Br  0.68011382  0.27365346  0.78533420     0.00500
Br940      Br  0.63662366  0.33183577  0.92317884    -0.03900
Br941      Br  0.63862477  0.09083825  0.93687437     0.00600
Br942      Br  0.57283642  0.28746749  0.86372839    -0.03200
Br943      Br  0.63831159  0.18809754  0.82347373    -0.04100
Br944      Br  0.67464808  0.42057024  0.88415291    -0.00100
C945        C  0.57227635  0.84456538  0.59029263     0.01300
C946        C  0.57374983  0.84883120  0.62166367     0.04100
C947        C  0.58756667  0.80881237  0.63860258    -0.11900
C948        C  0.60137816  0.76563803  0.62447098     0.23400
C949        C  0.60007568  0.76128599  0.59337185    -0.12500
C950        C  0.58553493  0.80032972  0.57644022     0.04800
C951        C  0.61920646  0.72706470  0.64205691     0.27200
C952        C  0.64820308  0.74066329  0.65109750    -0.13200
C953        C  0.66536029  0.70448726  0.66748487     0.05300
C954        C  0.65431468  0.65353413  0.67375466    -0.09200
C955        C  0.62510868  0.64005530  0.66513644     0.06200
C956        C  0.60749043  0.67700341  0.64964911    -0.13500
Br957      Br  0.61840652  0.70152333  0.57396432    -0.05600
Br958      Br  0.55981334  0.91145062  0.64187600     0.00000
Br959      Br  0.70295322  0.72629229  0.68370287     0.00500
Br960      Br  0.56721523  0.65938572  0.63897708    -0.03900
Br961      Br  0.58340985  0.79194801  0.53418659     0.00600
Br962      Br  0.58779023  0.81273278  0.68139957    -0.03200
Br963      Br  0.66445481  0.80906927  0.64094802    -0.04100
Br964      Br  0.60932270  0.57062134  0.67381943    -0.00100
C965        C  0.91234992  0.16500490  0.58136359     0.01300
C966        C  0.92706857  0.20569487  0.59718268     0.04100
C967        C  0.91077504  0.24119249  0.61499922    -0.11900
C968        C  0.87954378  0.23859433  0.61571279     0.23400
C969        C  0.86473870  0.19875241  0.59955427    -0.12500
C970        C  0.88106889  0.16061140  0.58362352     0.04800
C971        C  0.86226232  0.27750517  0.63360100     0.27200
C972        C  0.85026726  0.26272233  0.66132897    -0.13200
C973        C  0.83294324  0.29889916  0.67763736     0.05300
C974        C  0.82893180  0.35092002  0.66717400    -0.09200
C975        C  0.84139396  0.36610189  0.63975352     0.06200
C976        C  0.85751600  0.32919818  0.62274802    -0.13500
Br977      Br  0.82188818  0.19699356  0.59898219    -0.05600
Br978      Br  0.96949305  0.21469689  0.59370863     0.00000
Br979      Br  0.81302834  0.27632776  0.71331404     0.00500
Br980      Br  0.87277294  0.34910741  0.58432787    -0.03900
Br981      Br  0.86029075  0.09973405  0.56794976     0.00600
Br982      Br  0.93117187  0.29331207  0.63881534    -0.03200
Br983      Br  0.85785257  0.19301926  0.67705580    -0.04100
Br984      Br  0.83679819  0.43781032  0.62568919    -0.00100
C985        C  0.91455782  0.85470152  0.91240009     0.01300
C986        C  0.91747749  0.85091696  0.88101924     0.04100
C987        C  0.90068240  0.81344369  0.86503237    -0.11900
C988        C  0.87852012  0.78372543  0.87936638     0.23400
C989        C  0.87401028  0.78974005  0.91003265    -0.12500
C990        C  0.89277310  0.82300381  0.92671321     0.04800
C991        C  0.86005462  0.74588309  0.86213238     0.27200
C992        C  0.83722527  0.76464123  0.84348693    -0.13200
C993        C  0.82068572  0.72878204  0.82620789     0.05300
C994        C  0.82606078  0.67409966  0.82849295    -0.09200
C995        C  0.84831026  0.65516063  0.84764428     0.06200
C996        C  0.86578149  0.69108227  0.86389339    -0.13500
Br997      Br  0.84154816  0.75281555  0.92901608    -0.05600
Br998      Br  0.94134895  0.89984830  0.85826408     0.00000
Br999      Br  0.79112712  0.75436931  0.79886140     0.00500
Br1000     Br  0.89828312  0.66545029  0.88771968    -0.03900
Br1001     Br  0.88878892  0.82208133  0.96932970     0.01200
Br1002     Br  0.90788651  0.80244187  0.82316955    -0.03200
Br1003     Br  0.82882139  0.83945543  0.84145780    -0.04100
Br1004     Br  0.85490068  0.57992158  0.85145237    -0.00100
C1005       C  0.83814053  0.36022981  0.83366104     0.01300
C1006       C  0.85716921  0.32241329  0.82027019     0.04100
C1007       C  0.87502478  0.28919754  0.83787319    -0.11900
C1008       C  0.87192564  0.28896833  0.86891512     0.23400
C1009       C  0.85231997  0.32489319  0.88251641    -0.12500
C1010       C  0.83639478  0.36175475  0.86519070     0.04800
C1011       C  0.88872391  0.24962988  0.88694414     0.27200
C1012       C  0.88000684  0.19586586  0.88685249    -0.13200
C1013       C  0.89686074  0.15795268  0.90229955     0.05300
C1014       C  0.92213575  0.17369065  0.91847550    -0.09200
C1015       C  0.93038287  0.22748088  0.91933133     0.06200
C1016       C  0.91402735  0.26528996  0.90321438    -0.13500
Br1017     Br  0.84720087  0.32309645  0.92508576    -0.05600
Br1018     Br  0.85731833  0.31078193  0.77802178     0.00000
Br1019     Br  0.88575927  0.08408309  0.90069761     0.00500
Br1020     Br  0.92661655  0.33835749  0.90293395    -0.03900
Br1021     Br  0.81370219  0.41541437  0.88569527     0.00600
Br1022     Br  0.90424011  0.24381168  0.81950665    -0.03200
Br1023     Br  0.84501194  0.17406740  0.86534419    -0.04100
Br1024     Br  0.96338050  0.24949634  0.94359838    -0.00100
C1025       C  0.57977522  0.84735587  0.91688412     0.01300
C1026       C  0.59005274  0.86463139  0.88885555     0.04100
C1027       C  0.60609541  0.82977896  0.87042389    -0.11900
C1028       C  0.61340249  0.77862292  0.88059240     0.23400
C1029       C  0.60349666  0.76177720  0.90872048    -0.12500
C1030       C  0.58570009  0.79522552  0.92614772     0.04800
C1031       C  0.63074605  0.74164663  0.86163138     0.27200
C1032       C  0.61641151  0.69865730  0.84775470    -0.13200
C1033       C  0.63306627  0.66005542  0.83257190     0.05300
C1034       C  0.66434896  0.66504990  0.83036809    -0.09200
C1035       C  0.67834337  0.71029839  0.84266223     0.06200
C1036       C  0.66167761  0.74775301  0.85873374    -0.13500
Br1037     Br  0.61435022  0.69263911  0.92342752    -0.05600
Br1038     Br  0.58304131  0.93635778  0.87582358     0.00000
Br1039     Br  0.61241151  0.59916647  0.81666609     0.00500
Br1040     Br  0.68132644  0.80702306  0.87749583    -0.03900
Br1041     Br  0.56674382  0.76749486  0.96103216     0.00600
Br1042     Br  0.61768064  0.85162675  0.83104565    -0.03200
Br1043     Br  0.57372852  0.69224178  0.85026649    -0.04100
Br1044     Br  0.72002674  0.72367491  0.83628475    -0.00100
C1045       C  0.82473673  0.66474175  0.66224512     0.01300
C1046       C  0.81156666  0.70444194  0.64433652     0.04100
C1047       C  0.82937677  0.73897303  0.62735009    -0.11900
C1048       C  0.86049765  0.73576938  0.62880846     0.23400
C1049       C  0.87385324  0.69725383  0.64689184    -0.12500
C1050       C  0.85622062  0.66090503  0.66284881     0.04800
C1051       C  0.87908701  0.77364065  0.61158482     0.27200
C1052       C  0.89230446  0.75796764  0.58460000    -0.13200
C1053       C  0.90935758  0.79443333  0.56812966     0.05300
C1054       C  0.91180652  0.84741012  0.57767628    -0.09200
C1055       C  0.89829306  0.86318006  0.60446434     0.06200
C1056       C  0.88291563  0.82591858  0.62188577    -0.13500
Br1057     Br  0.91658347  0.69525229  0.65012739    -0.05600
Br1058     Br  0.76930746  0.71487210  0.64368427     0.00000
Br1059     Br  0.93070784  0.77118552  0.53344146     0.00500
Br1060     Br  0.86754345  0.84602345  0.66021470    -0.03900
Br1061     Br  0.87617607  0.60417215  0.68357146     0.00600
Br1062     Br  0.81124657  0.79163108  0.60207421    -0.03200
Br1063     Br  0.88693166  0.68659168  0.57023953    -0.04100
Br1064     Br  0.89949756  0.93646444  0.61660829    -0.00100
loop_ 
_geom_bond_atom_site_label_1 
_geom_bond_atom_site_label_2 
_geom_bond_distance 
_geom_bond_site_symmetry_2 
_ccdc_geom_bond_type 
C1           N19   1.358       .  A
C1           C38   1.459       .  S
C1          C147   1.497       .  S
N2           N19   1.329       .  A
N2           N24   1.319       .  A
N2          Co39   2.108   1_565  S
C3           N28   1.341       .  A
C3           C41   1.463       .  S
C3           H48   1.081       .  S
H4           C45   1.079       .  S
C5           N29   1.339       .  A
C5            C9   1.465       .  S
C5           H34   1.080       .  S
Co6          N14   2.088   1_545  S
Co6          N22   2.087       .  S
Co6         N556   2.080   1_545  S
Co6         N578   2.099       .  S
Co6        Cl582   2.452       .  S
N7           C45   1.343       .  A
N7           N14   1.322       .  A
N7         Co274   2.095   1_564  S
Co8          N11   2.089   1_545  S
Co8          N15   2.078       .  S
Co8         N273   2.095   1_545  S
Co8         N294   2.085       .  S
Co8        Cl848   2.458       .  S
C9           N47   1.354       .  A
C9          C187   1.498       .  S
N10          N17   1.322       .  A
N10          N40   1.324       .  A
N10         Co43   2.082   1_565  S
N11          N29   1.317       .  A
N11          N47   1.325       .  A
N12          C41   1.353       .  A
N12          N22   1.326       .  A
H13          C38   1.081       .  S
N14          N35   1.324       .  A
N15          N33   1.321       .  A
N15          N20   1.324       .  A
C16          N20   1.347       .  A
C16          C44   1.463       .  S
C16         C216   1.476       .  S
N17          C32   1.345       .  A
N17        Co305   2.102   1_565  S
C18          N46   1.343       .  A
C18          C21   1.464       .  S
C18          H52   1.082       .  S
C21          N42   1.346       .  A
C21         C116   1.474       .  S
N22          N28   1.319       .  A
N23          C49   1.340       .  A
N23          N25   1.318       .  A
N23        Co305   2.089       .  S
N24          C38   1.340       .  A
N24        Co538   2.080   1_465  S
N25          N53   1.325       .  A
N25         Co43   2.081       .  S
H26          C49   1.081       .  S
H27          C44   1.082       .  S
N28        Co274   2.085   1_554  S
N29        Co575   2.080   1_565  S
N30          N42   1.323       .  A
N30          N46   1.322       .  A
N30         Co39   2.078       .  S
C31          N35   1.349       .  A
C31          C45   1.461       .  S
C31         C256   1.477       .  S
C32          C51   1.466       .  S
C32          H36   1.081       .  S
N33          C44   1.344       .  A
N33        Co575   2.101       .  S
C37          N53   1.352       .  A
C37          C49   1.463       .  S
C37         C127   1.490       .  S
Co39        N283   2.102   1_544  S
Co39        N289   2.089   1_554  S
Co39        Cl50   2.455   1_455  S
N40          C51   1.347       .  A
C41         C167   1.490       .  S
Co43        N561   2.080   1_445  S
Co43        N565   2.101   1_455  S
Co43       Cl316   2.450   1_455  S
N46        Co538   2.099   1_455  S
Cl50       Co538   2.452       .  S
Cl50       Co806   2.458   1_554  S
Cl50       Co309   2.450   1_654  S
C51         C227   1.482       .  S
C54          N72   1.351       .  A
C54          C91   1.470       .  S
C54         C247   1.498       .  S
N55          N72   1.323       .  A
N55          N77   1.319       .  A
N55         Co92   2.090       .  S
C56          N81   1.340       .  A
C56          C94   1.462       .  S
C56         H101   1.089       .  S
H57          C98   1.082       .  S
C58          N82   1.341       .  A
C58          C62   1.465       .  S
C58          H87   1.081       .  S
Co59         N77   2.091       .  S
Co59         N67   2.103       .  S
Co59         N99   2.085       .  S
Co59         N75   2.090       .  S
Co59       Cl103   2.460       .  S
N60          C98   1.339       .  A
N60          N67   1.321       .  A
N60         Co61   2.077       .  S
Co61         N64   2.083       .  S
Co61         N81   2.084       .  S
Co61         N68   2.086       .  S
Co61       Cl103   2.445       .  S
C62         N100   1.350       .  A
C62         C236   1.491       .  S
N63          N70   1.320       .  A
N63          N93   1.324       .  A
N63         Co96   2.083       .  S
N64          N82   1.318       .  A
N64         N100   1.324       .  A
N65          C94   1.351       .  A
N65          N75   1.325       .  A
H66          C91   1.081       .  S
N67          N88   1.328       .  A
N68          N86   1.319       .  A
N68          N73   1.324       .  A
C69          N73   1.350       .  A
C69          C97   1.457       .  S
C69         C136   1.473       .  S
N70          C85   1.340       .  A
N70         Co92   2.083       .  S
C71          N99   1.340       .  A
C71          C74   1.456       .  S
C71         H105   1.081       .  S
C74          N95   1.353       .  A
C74         C176   1.479       .  S
N75          N81   1.320       .  A
N76         C102   1.343       .  A
N76          N78   1.318       .  A
N76         Co92   2.095       .  S
N77          C91   1.344       .  A
N78         N106   1.324       .  A
N78         Co96   2.086       .  S
H79         C102   1.081       .  S
H80          C97   1.081       .  S
N82         Co96   2.086       .  S
N83          N95   1.328       .  A
N83          N99   1.322       .  A
N83         Co92   2.102       .  S
C84          N88   1.355       .  A
C84          C98   1.454       .  S
C84         C156   1.482       .  S
C85         C104   1.457       .  S
C85          H89   1.082       .  S
N86          C97   1.339       .  A
N86         Co96   2.071       .  S
C90         N106   1.351       .  A
C90         C102   1.471       .  S
C90         C207   1.501       .  S
Co92       Cl103   2.449       .  S
N93         C104   1.349       .  A
C94         C107   1.484       .  S
Co96       Cl103   2.454       .  S
C104        C196   1.469       .  S
C107        C108   1.413       .  A
C107        C112   1.412       .  A
C108        C109   1.407       .  A
C108       Br120   1.931       .  S
C109        C110   1.411       .  A
C109       Br124   1.933       .  S
C110        C113   1.494       .  S
C110        C111   1.414       .  A
C111        C112   1.411       .  A
C111       Br119   1.931       .  S
C112       Br123   1.932       .  S
C113        C114   1.413       .  A
C113        C118   1.415       .  A
C114        C115   1.407       .  A
C114       Br125   1.929       .  S
C115        C116   1.407       .  A
C115       Br121   1.931       .  S
C116        C117   1.407       .  A
C117        C118   1.409       .  A
C117       Br126   1.930       .  S
C118       Br122   1.932       .  S
C127        C128   1.416       .  A
C127        C132   1.419       .  A
C128        C129   1.408       .  A
C128       Br140   1.928       .  S
C129        C130   1.406       .  A
C129       Br144   1.932       .  S
C130        C133   1.483       .  S
C130        C131   1.405       .  A
C131        C132   1.408       .  A
C131       Br139   1.932       .  S
C132       Br143   1.931       .  S
C133        C134   1.409       .  A
C133        C138   1.408       .  A
C134        C135   1.406       .  A
C134       Br145   1.928       .  S
C135        C136   1.409       .  A
C135       Br141   1.931       .  S
C136        C137   1.413       .  A
C137        C138   1.406       .  A
C137       Br146   1.932       .  S
C138       Br142   1.931       .  S
C147        C148   1.420       .  A
C147        C152   1.413       .  A
C148        C149   1.413       .  A
C148       Br160   1.931       .  S
C149        C150   1.408       .  A
C149       Br164   1.932       .  S
C150        C153   1.492       .  S
C150        C151   1.407       .  A
C151        C152   1.410       .  A
C151       Br159   1.931       .  S
C152       Br163   1.919       .  S
C153        C154   1.411       .  A
C153        C158   1.411       .  A
C154        C155   1.408       .  A
C154       Br165   1.930       .  S
C155        C156   1.407       .  A
C155       Br161   1.925       .  S
C156        C157   1.413       .  A
C157        C158   1.412       .  A
C157       Br166   1.931       .  S
C158       Br162   1.929       .  S
C167        C168   1.415       .  A
C167        C172   1.417       .  A
C168        C169   1.410       .  A
C168       Br180   1.931       .  S
C169        C170   1.409       .  A
C169       Br184   1.930       .  S
C170        C173   1.491       .  S
C170        C171   1.409       .  A
C171        C172   1.410       .  A
C171       Br179   1.932       .  S
C172       Br183   1.932       .  S
C173        C174   1.412       .  A
C173        C178   1.411       .  A
C174        C175   1.409       .  A
C174       Br185   1.929       .  S
C175        C176   1.408       .  A
C175       Br181   1.927       .  S
C176        C177   1.410       .  A
C177        C178   1.409       .  A
C177       Br186   1.930       .  S
C178       Br182   1.929       .  S
C187        C188   1.424       .  A
C187        C192   1.420       .  A
C188        C189   1.409       .  A
C188       Br200   1.931       .  S
C189        C190   1.405       .  A
C189       Br204   1.935       .  S
C190        C193   1.485       .  S
C190        C191   1.405       .  A
C191        C192   1.408       .  A
C191       Br199   1.933       .  S
C192       Br203   1.930       .  S
C193        C194   1.412       .  A
C193        C198   1.410       .  A
C194        C195   1.407       .  A
C194       Br205   1.930       .  S
C195        C196   1.406       .  A
C195       Br201   1.928       .  S
C196        C197   1.408       .  A
C197        C198   1.406       .  A
C197       Br206   1.931       .  S
C198       Br202   1.930       .  S
C207        C208   1.419       .  A
C207        C212   1.424       .  A
C208        C209   1.409       .  A
C208       Br220   1.927       .  S
C209        C210   1.406       .  A
C209       Br224   1.933       .  S
C210        C213   1.492       .  S
C210        C211   1.408       .  A
C211        C212   1.413       .  A
C211       Br219   1.933       .  S
C212       Br223   1.934       .  S
C213        C214   1.412       .  A
C213        C218   1.412       .  A
C214        C215   1.408       .  A
C214       Br225   1.931       .  S
C215        C216   1.409       .  A
C215       Br221   1.931       .  S
C216        C217   1.408       .  A
C217        C218   1.409       .  A
C217       Br226   1.927       .  S
C218       Br222   1.929       .  S
C227        C228   1.414       .  A
C227        C232   1.407       .  A
C228        C229   1.410       .  A
C228       Br240   1.931       .  S
C229        C230   1.410       .  A
C229       Br244   1.930       .  S
C230        C233   1.488       .  S
C230        C231   1.410       .  A
C231        C232   1.406       .  A
C231       Br239   1.932       .  S
C232       Br243   1.921       .  S
C233        C234   1.408       .  A
C233        C238   1.408       .  A
C234        C235   1.409       .  A
C234       Br245   1.933       .  S
C235        C236   1.419       .  A
C235       Br241   1.933       .  S
C236        C237   1.417       .  A
C237        C238   1.409       .  A
C237       Br246   1.929       .  S
C238       Br242   1.932       .  S
C247        C248   1.419       .  A
C247        C252   1.423       .  A
C248        C249   1.410       .  A
C248       Br260   1.923       .  S
C249        C250   1.407       .  A
C249       Br264   1.934       .  S
C250        C253   1.488       .  S
C250        C251   1.406       .  A
C251        C252   1.410       .  A
C251       Br259   1.932       .  S
C252       Br263   1.934       .  S
C253        C254   1.411       .  A
C253        C258   1.409       .  A
C254        C255   1.409       .  A
C254       Br265   1.930       .  S
C255        C256   1.409       .  A
C255       Br261   1.928       .  S
C256        C257   1.410       .  A
C257        C258   1.407       .  A
C257       Br266   1.930       .  S
C258       Br262   1.929       .  S
C267        N285   1.358       .  A
C267        C304   1.459       .  S
C267        C413   1.497       .  S
N268        N285   1.329       .  A
N268        N290   1.319       .  A
N268       Co305   2.108   1_565  S
C269        N294   1.341       .  A
C269        C307   1.463       .  S
C269        H314   1.081       .  S
H270        C311   1.079       .  S
C271        N295   1.339       .  A
C271        C275   1.465       .  S
C271        H300   1.080       .  S
Co272       N822   2.080   1_545  S
Co272       N280   2.088   1_545  S
Co272       N844   2.099       .  S
Co272       N288   2.087       .  S
Co272      Cl848   2.452       .  S
N273        C311   1.343       .  A
N273        N280   1.322       .  A
Co274       N277   2.089   1_545  S
Co274       N281   2.078       .  S
Co274      Cl582   2.458   1_556  S
C275        N313   1.354       .  A
C275        C453   1.498       .  S
N276        N283   1.322       .  A
N276        N306   1.324       .  A
N276       Co309   2.082   1_565  S
N277        N295   1.317       .  A
N277        N313   1.325       .  A
N278        C307   1.353       .  A
N278        N288   1.326       .  A
H279        C304   1.081       .  S
N280        N301   1.324       .  A
N281        N299   1.321       .  A
N281        N286   1.324       .  A
C282        N286   1.347       .  A
C282        C310   1.463       .  S
C282        C482   1.476       .  S
N283        C298   1.345       .  A
C284        N312   1.343       .  A
C284        C287   1.464       .  S
C284        H318   1.082       .  S
C287        N308   1.346       .  A
C287        C382   1.474       .  S
N288        N294   1.319       .  A
N289        C315   1.340       .  A
N289        N291   1.318       .  A
N290        C304   1.340       .  A
N290       Co804   2.080   1_465  S
N291        N319   1.325       .  A
N291       Co309   2.081       .  S
H292        C315   1.081       .  S
H293        C310   1.082       .  S
N295       Co841   2.080   1_565  S
N296        N308   1.323       .  A
N296        N312   1.322       .  A
N296       Co305   2.078       .  S
C297        N301   1.349       .  A
C297        C311   1.461       .  S
C297        C522   1.477       .  S
C298        C317   1.466       .  S
C298        H302   1.081       .  S
N299        C310   1.344       .  A
N299       Co841   2.101       .  S
C303        N319   1.352       .  A
C303        C315   1.463       .  S
C303        C393   1.490       .  S
Co305      Cl316   2.455   1_455  S
N306        C317   1.347       .  A
C307        C433   1.490       .  S
Co309       N827   2.080   1_445  S
Co309       N831   2.101   1_455  S
N312       Co804   2.099   1_455  S
Cl316      Co804   2.452       .  S
Cl316      Co540   2.458       .  S
C317        C493   1.482       .  S
C320        N338   1.351       .  A
C320        C357   1.470       .  S
C320        C513   1.498       .  S
N321        N338   1.323       .  A
N321        N343   1.319       .  A
N321       Co358   2.090       .  S
C322        N347   1.340       .  A
C322        C360   1.462       .  S
C322        H367   1.089       .  S
H323        C364   1.082       .  S
C324        N348   1.341       .  A
C324        C328   1.465       .  S
C324        H353   1.081       .  S
Co325       N343   2.091       .  S
Co325       N333   2.103       .  S
Co325       N365   2.085       .  S
Co325       N341   2.090       .  S
Co325      Cl369   2.460       .  S
N326        C364   1.339       .  A
N326        N333   1.321       .  A
N326       Co327   2.077       .  S
Co327       N330   2.083       .  S
Co327       N347   2.084       .  S
Co327       N334   2.086       .  S
Co327      Cl369   2.445       .  S
C328        N366   1.350       .  A
C328        C502   1.491       .  S
N329        N336   1.320       .  A
N329        N359   1.324       .  A
N329       Co362   2.083       .  S
N330        N348   1.318       .  A
N330        N366   1.324       .  A
N331        C360   1.351       .  A
N331        N341   1.325       .  A
H332        C357   1.081       .  S
N333        N354   1.328       .  A
N334        N352   1.319       .  A
N334        N339   1.324       .  A
C335        N339   1.350       .  A
C335        C363   1.457       .  S
C335        C402   1.473       .  S
N336        C351   1.340       .  A
N336       Co358   2.083       .  S
C337        N365   1.340       .  A
C337        C340   1.456       .  S
C337        H371   1.081       .  S
C340        N361   1.353       .  A
C340        C442   1.479       .  S
N341        N347   1.320       .  A
N342        C368   1.343       .  A
N342        N344   1.318       .  A
N342       Co358   2.095       .  S
N343        C357   1.344       .  A
N344        N372   1.324       .  A
N344       Co362   2.086       .  S
H345        C368   1.081       .  S
H346        C363   1.081       .  S
N348       Co362   2.086       .  S
N349        N361   1.328       .  A
N349        N365   1.322       .  A
N349       Co358   2.102       .  S
C350        N354   1.355       .  A
C350        C364   1.454       .  S
C350        C422   1.482       .  S
C351        C370   1.458       .  S
C351        H355   1.082       .  S
N352        C363   1.339       .  A
N352       Co362   2.071       .  S
C356        N372   1.351       .  A
C356        C368   1.471       .  S
C356        C473   1.501       .  S
Co358      Cl369   2.449       .  S
N359        C370   1.349       .  A
C360        C373   1.484       .  S
Co362      Cl369   2.454       .  S
C370        C462   1.469       .  S
C373        C374   1.413       .  A
C373        C378   1.412       .  A
C374        C375   1.407       .  A
C374       Br386   1.931       .  S
C375        C376   1.411       .  A
C375       Br390   1.933       .  S
C376        C379   1.494       .  S
C376        C377   1.414       .  A
C377        C378   1.411       .  A
C377       Br385   1.931       .  S
C378       Br389   1.932       .  S
C379        C380   1.413       .  A
C379        C384   1.415       .  A
C380        C381   1.407       .  A
C380       Br391   1.929       .  S
C381        C382   1.407       .  A
C381       Br387   1.931       .  S
C382        C383   1.407       .  A
C383        C384   1.409       .  A
C383       Br392   1.930       .  S
C384       Br388   1.932       .  S
C393        C394   1.416       .  A
C393        C398   1.419       .  A
C394        C395   1.408       .  A
C394       Br406   1.928       .  S
C395        C396   1.406       .  A
C395       Br410   1.932       .  S
C396        C399   1.483       .  S
C396        C397   1.405       .  A
C397        C398   1.408       .  A
C397       Br405   1.932       .  S
C398       Br409   1.931       .  S
C399        C400   1.409       .  A
C399        C404   1.408       .  A
C400        C401   1.406       .  A
C400       Br411   1.928       .  S
C401        C402   1.409       .  A
C401       Br407   1.931       .  S
C402        C403   1.413       .  A
C403        C404   1.406       .  A
C403       Br412   1.932       .  S
C404       Br408   1.931       .  S
C413        C414   1.420       .  A
C413        C418   1.413       .  A
C414        C415   1.413       .  A
C414       Br426   1.931       .  S
C415        C416   1.408       .  A
C415       Br430   1.932       .  S
C416        C419   1.492       .  S
C416        C417   1.407       .  A
C417        C418   1.410       .  A
C417       Br425   1.931       .  S
C418       Br429   1.919       .  S
C419        C420   1.411       .  A
C419        C424   1.411       .  A
C420        C421   1.408       .  A
C420       Br431   1.930       .  S
C421        C422   1.407       .  A
C421       Br427   1.925       .  S
C422        C423   1.413       .  A
C423        C424   1.412       .  A
C423       Br432   1.931       .  S
C424       Br428   1.929       .  S
C433        C434   1.415       .  A
C433        C438   1.417       .  A
C434        C435   1.410       .  A
C434       Br446   1.931       .  S
C435        C436   1.409       .  A
C435       Br450   1.930       .  S
C436        C439   1.491       .  S
C436        C437   1.409       .  A
C437        C438   1.410       .  A
C437       Br445   1.932       .  S
C438       Br449   1.932       .  S
C439        C440   1.412       .  A
C439        C444   1.411       .  A
C440        C441   1.409       .  A
C440       Br451   1.929       .  S
C441        C442   1.408       .  A
C441       Br447   1.927       .  S
C442        C443   1.410       .  A
C443        C444   1.409       .  A
C443       Br452   1.930       .  S
C444       Br448   1.929       .  S
C453        C454   1.424       .  A
C453        C458   1.420       .  A
C454        C455   1.409       .  A
C454       Br466   1.931       .  S
C455        C456   1.405       .  A
C455       Br470   1.935       .  S
C456        C459   1.485       .  S
C456        C457   1.405       .  A
C457        C458   1.408       .  A
C457       Br465   1.933       .  S
C458       Br469   1.930       .  S
C459        C460   1.412       .  A
C459        C464   1.410       .  A
C460        C461   1.407       .  A
C460       Br471   1.930       .  S
C461        C462   1.406       .  A
C461       Br467   1.928       .  S
C462        C463   1.408       .  A
C463        C464   1.406       .  A
C463       Br472   1.931       .  S
C464       Br468   1.930       .  S
C473        C474   1.419       .  A
C473        C478   1.424       .  A
C474        C475   1.409       .  A
C474       Br486   1.927       .  S
C475        C476   1.406       .  A
C475       Br490   1.933       .  S
C476        C479   1.492       .  S
C476        C477   1.408       .  A
C477        C478   1.413       .  A
C477       Br485   1.933       .  S
C478       Br489   1.934       .  S
C479        C480   1.412       .  A
C479        C484   1.412       .  A
C480        C481   1.408       .  A
C480       Br491   1.931       .  S
C481        C482   1.409       .  A
C481       Br487   1.931       .  S
C482        C483   1.408       .  A
C483        C484   1.409       .  A
C483       Br492   1.927       .  S
C484       Br488   1.929       .  S
C493        C494   1.414       .  A
C493        C498   1.407       .  A
C494        C495   1.410       .  A
C494       Br506   1.931       .  S
C495        C496   1.410       .  A
C495       Br510   1.930       .  S
C496        C499   1.488       .  S
C496        C497   1.410       .  A
C497        C498   1.406       .  A
C497       Br505   1.932       .  S
C498       Br509   1.921       .  S
C499        C500   1.408       .  A
C499        C504   1.408       .  A
C500        C501   1.409       .  A
C500       Br511   1.933       .  S
C501        C502   1.419       .  A
C501       Br507   1.933       .  S
C502        C503   1.417       .  A
C503        C504   1.409       .  A
C503       Br512   1.929       .  S
C504       Br508   1.932       .  S
C513        C514   1.419       .  A
C513        C518   1.423       .  A
C514        C515   1.410       .  A
C514       Br526   1.923       .  S
C515        C516   1.407       .  A
C515       Br530   1.934       .  S
C516        C519   1.488       .  S
C516        C517   1.406       .  A
C517        C518   1.410       .  A
C517       Br525   1.932       .  S
C518       Br529   1.934       .  S
C519        C520   1.411       .  A
C519        C524   1.409       .  A
C520        C521   1.409       .  A
C520       Br531   1.930       .  S
C521        C522   1.409       .  A
C521       Br527   1.928       .  S
C522        C523   1.410       .  A
C523        C524   1.407       .  A
C523       Br532   1.930       .  S
C524       Br528   1.929       .  S
C533        N551   1.358       .  A
C533        C570   1.459       .  S
C533        C679   1.497       .  S
N534        N551   1.329       .  A
N534        N556   1.319       .  A
N534       Co571   2.108   1_565  S
C535        N560   1.341       .  A
C535        C573   1.463       .  S
C535        H580   1.081       .  S
H536        C577   1.079       .  S
C537        N561   1.339       .  A
C537        C541   1.465       .  S
C537        H566   1.080       .  S
Co538       N546   2.088   1_545  S
Co538       N554   2.087       .  S
N539        C577   1.343       .  A
N539        N546   1.322       .  A
N539       Co806   2.095   1_564  S
Co540       N805   2.095   1_545  S
Co540       N543   2.089   1_545  S
Co540       N826   2.085       .  S
Co540       N547   2.078       .  S
C541        N579   1.354       .  A
C541        C719   1.498       .  S
N542        N549   1.322       .  A
N542        N572   1.324       .  A
N542       Co575   2.082   1_565  S
N543        N561   1.317       .  A
N543        N579   1.325       .  A
N544        C573   1.353       .  A
N544        N554   1.326       .  A
H545        C570   1.081       .  S
N546        N567   1.324       .  A
N547        N565   1.321       .  A
N547        N552   1.324       .  A
C548        N552   1.347       .  A
C548        C576   1.463       .  S
C548        C748   1.476       .  S
N549        C564   1.345       .  A
N549       Co837   2.102   1_565  S
C550        N578   1.343       .  A
C550        C553   1.464       .  S
C550        H584   1.082       .  S
C553        N574   1.346       .  A
C553        C648   1.474       .  S
N554        N560   1.319       .  A
N555        C581   1.340       .  A
N555        N557   1.318       .  A
N555       Co837   2.089       .  S
N556        C570   1.340       .  A
N557        N585   1.325       .  A
N557       Co575   2.081       .  S
H558        C581   1.081       .  S
H559        C576   1.082       .  S
N560       Co806   2.085   1_554  S
N562        N574   1.323       .  A
N562        N578   1.322       .  A
N562       Co571   2.078       .  S
C563        N567   1.348       .  A
C563        C577   1.461       .  S
C563        C788   1.477       .  S
C564        C583   1.466       .  S
C564        H568   1.081       .  S
N565        C576   1.344       .  A
C569        N585   1.352       .  A
C569        C581   1.463       .  S
C569        C659   1.490       .  S
Co571       N815   2.102   1_544  S
Co571       N821   2.089   1_554  S
Co571      Cl582   2.455       .  S
N572        C583   1.347       .  A
C573        C699   1.490       .  S
Co575      Cl848   2.450       .  S
Cl582      Co841   2.450   1_554  S
C583        C759   1.482       .  S
C586        N604   1.351       .  A
C586        C623   1.470       .  S
C586        C779   1.498       .  S
N587        N604   1.323       .  A
N587        N609   1.319       .  A
N587       Co624   2.090       .  S
C588        N613   1.340       .  A
C588        C626   1.462       .  S
C588        H633   1.089       .  S
H589        C630   1.082       .  S
C590        N614   1.341       .  A
C590        C594   1.465       .  S
C590        H619   1.081       .  S
Co591       N609   2.091       .  S
Co591       N599   2.103       .  S
Co591       N631   2.085       .  S
Co591       N607   2.090       .  S
Co591      Cl635   2.460       .  S
N592        C630   1.339       .  A
N592        N599   1.321       .  A
N592       Co593   2.077       .  S
Co593       N596   2.083       .  S
Co593       N613   2.084       .  S
Co593       N600   2.086       .  S
Co593      Cl635   2.445       .  S
C594        N632   1.350       .  A
C594        C768   1.491       .  S
N595        N602   1.320       .  A
N595        N625   1.324       .  A
N595       Co628   2.083       .  S
N596        N614   1.318       .  A
N596        N632   1.324       .  A
N597        C626   1.351       .  A
N597        N607   1.325       .  A
H598        C623   1.081       .  S
N599        N620   1.328       .  A
N600        N618   1.319       .  A
N600        N605   1.324       .  A
C601        N605   1.350       .  A
C601        C629   1.457       .  S
C601        C668   1.473       .  S
N602        C617   1.340       .  A
N602       Co624   2.083       .  S
C603        N631   1.340       .  A
C603        C606   1.456       .  S
C603        H637   1.081       .  S
C606        N627   1.353       .  A
C606        C708   1.479       .  S
N607        N613   1.320       .  A
N608        C634   1.343       .  A
N608        N610   1.318       .  A
N608       Co624   2.095       .  S
N609        C623   1.344       .  A
N610        N638   1.324       .  A
N610       Co628   2.086       .  S
H611        C634   1.081       .  S
H612        C629   1.081       .  S
N614       Co628   2.086       .  S
N615        N627   1.328       .  A
N615        N631   1.322       .  A
N615       Co624   2.102       .  S
C616        N620   1.355       .  A
C616        C630   1.454       .  S
C616        C688   1.482       .  S
C617        C636   1.457       .  S
C617        H621   1.082       .  S
N618        C629   1.339       .  A
N618       Co628   2.071       .  S
C622        N638   1.351       .  A
C622        C634   1.471       .  S
C622        C739   1.501       .  S
Co624      Cl635   2.449       .  S
N625        C636   1.349       .  A
C626        C639   1.484       .  S
Co628      Cl635   2.454       .  S
C636        C728   1.469       .  S
C639        C640   1.413       .  A
C639        C644   1.412       .  A
C640        C641   1.407       .  A
C640       Br652   1.931       .  S
C641        C642   1.411       .  A
C641       Br656   1.933       .  S
C642        C645   1.494       .  S
C642        C643   1.414       .  A
C643        C644   1.411       .  A
C643       Br651   1.931       .  S
C644       Br655   1.932       .  S
C645        C646   1.413       .  A
C645        C650   1.415       .  A
C646        C647   1.407       .  A
C646       Br657   1.929       .  S
C647        C648   1.407       .  A
C647       Br653   1.931       .  S
C648        C649   1.407       .  A
C649        C650   1.409       .  A
C649       Br658   1.930       .  S
C650       Br654   1.932       .  S
C659        C660   1.416       .  A
C659        C664   1.419       .  A
C660        C661   1.408       .  A
C660       Br672   1.928       .  S
C661        C662   1.406       .  A
C661       Br676   1.932       .  S
C662        C665   1.483       .  S
C662        C663   1.405       .  A
C663        C664   1.408       .  A
C663       Br671   1.932       .  S
C664       Br675   1.931       .  S
C665        C666   1.409       .  A
C665        C670   1.408       .  A
C666        C667   1.406       .  A
C666       Br677   1.928       .  S
C667        C668   1.409       .  A
C667       Br673   1.931       .  S
C668        C669   1.413       .  A
C669        C670   1.406       .  A
C669       Br678   1.932       .  S
C670       Br674   1.931       .  S
C679        C680   1.420       .  A
C679        C684   1.413       .  A
C680        C681   1.413       .  A
C680       Br692   1.931       .  S
C681        C682   1.408       .  A
C681       Br696   1.932       .  S
C682        C685   1.492       .  S
C682        C683   1.407       .  A
C683        C684   1.410       .  A
C683       Br691   1.931       .  S
C684       Br695   1.919       .  S
C685        C686   1.411       .  A
C685        C690   1.411       .  A
C686        C687   1.408       .  A
C686       Br697   1.930       .  S
C687        C688   1.407       .  A
C687       Br693   1.925       .  S
C688        C689   1.413       .  A
C689        C690   1.412       .  A
C689       Br698   1.931       .  S
C690       Br694   1.929       .  S
C699        C700   1.415       .  A
C699        C704   1.417       .  A
C700        C701   1.410       .  A
C700       Br712   1.931       .  S
C701        C702   1.409       .  A
C701       Br716   1.930       .  S
C702        C705   1.491       .  S
C702        C703   1.409       .  A
C703        C704   1.410       .  A
C703       Br711   1.932       .  S
C704       Br715   1.932       .  S
C705        C706   1.412       .  A
C705        C710   1.411       .  A
C706        C707   1.409       .  A
C706       Br717   1.929       .  S
C707        C708   1.408       .  A
C707       Br713   1.927       .  S
C708        C709   1.410       .  A
C709        C710   1.409       .  A
C709       Br718   1.930       .  S
C710       Br714   1.929       .  S
C719        C720   1.424       .  A
C719        C724   1.420       .  A
C720        C721   1.409       .  A
C720       Br732   1.931       .  S
C721        C722   1.405       .  A
C721       Br736   1.935       .  S
C722        C725   1.485       .  S
C722        C723   1.405       .  A
C723        C724   1.408       .  A
C723       Br731   1.933       .  S
C724       Br735   1.930       .  S
C725        C726   1.412       .  A
C725        C730   1.410       .  A
C726        C727   1.407       .  A
C726       Br737   1.930       .  S
C727        C728   1.406       .  A
C727       Br733   1.928       .  S
C728        C729   1.408       .  A
C729        C730   1.406       .  A
C729       Br738   1.931       .  S
C730       Br734   1.930       .  S
C739        C740   1.419       .  A
C739        C744   1.424       .  A
C740        C741   1.409       .  A
C740       Br752   1.927       .  S
C741        C742   1.406       .  A
C741       Br756   1.933       .  S
C742        C745   1.492       .  S
C742        C743   1.408       .  A
C743        C744   1.413       .  A
C743       Br751   1.933       .  S
C744       Br755   1.934       .  S
C745        C746   1.412       .  A
C745        C750   1.412       .  A
C746        C747   1.408       .  A
C746       Br757   1.931       .  S
C747        C748   1.409       .  A
C747       Br753   1.931       .  S
C748        C749   1.408       .  A
C749        C750   1.409       .  A
C749       Br758   1.927       .  S
C750       Br754   1.929       .  S
C759        C760   1.414       .  A
C759        C764   1.407       .  A
C760        C761   1.410       .  A
C760       Br772   1.931       .  S
C761        C762   1.410       .  A
C761       Br776   1.930       .  S
C762        C765   1.488       .  S
C762        C763   1.410       .  A
C763        C764   1.406       .  A
C763       Br771   1.932       .  S
C764       Br775   1.921       .  S
C765        C766   1.408       .  A
C765        C770   1.408       .  A
C766        C767   1.409       .  A
C766       Br777   1.933       .  S
C767        C768   1.419       .  A
C767       Br773   1.933       .  S
C768        C769   1.417       .  A
C769        C770   1.409       .  A
C769       Br778   1.929       .  S
C770       Br774   1.932       .  S
C779        C780   1.419       .  A
C779        C784   1.423       .  A
C780        C781   1.410       .  A
C780       Br792   1.923       .  S
C781        C782   1.407       .  A
C781       Br796   1.934       .  S
C782        C785   1.488       .  S
C782        C783   1.406       .  A
C783        C784   1.410       .  A
C783       Br791   1.932       .  S
C784       Br795   1.934       .  S
C785        C786   1.411       .  A
C785        C790   1.409       .  A
C786        C787   1.409       .  A
C786       Br797   1.930       .  S
C787        C788   1.409       .  A
C787       Br793   1.928       .  S
C788        C789   1.410       .  A
C789        C790   1.407       .  A
C789       Br798   1.930       .  S
C790       Br794   1.929       .  S
C799        N817   1.358       .  A
C799        C836   1.459       .  S
C799        C945   1.497       .  S
N800        N817   1.329       .  A
N800        N822   1.319       .  A
N800       Co837   2.108   1_565  S
C801        N826   1.341       .  A
C801        C839   1.463       .  S
C801        H846   1.081       .  S
H802        C843   1.079       .  S
C803        N827   1.339       .  A
C803        C807   1.465       .  S
C803        H832   1.080       .  S
Co804       N812   2.088   1_545  S
Co804       N820   2.087       .  S
N805        C843   1.343       .  A
N805        N812   1.322       .  A
Co806       N809   2.089   1_545  S
Co806       N813   2.078       .  S
C807        N845   1.354       .  A
C807        C985   1.498       .  S
N808        N815   1.322       .  A
N808        N838   1.324       .  A
N808       Co841   2.082   1_565  S
N809        N827   1.317       .  A
N809        N845   1.325       .  A
N810        C839   1.353       .  A
N810        N820   1.326       .  A
H811        C836   1.081       .  S
N812        N833   1.324       .  A
N813        N831   1.321       .  A
N813        N818   1.324       .  A
C814        N818   1.347       .  A
C814        C842   1.463       .  S
C814       C1014   1.476       .  S
N815        C830   1.345       .  A
C816        N844   1.343       .  A
C816        C819   1.464       .  S
C816        H850   1.082       .  S
C819        N840   1.346       .  A
C819        C914   1.474       .  S
N820        N826   1.319       .  A
N821        C847   1.340       .  A
N821        N823   1.318       .  A
N822        C836   1.340       .  A
N823        N851   1.325       .  A
N823       Co841   2.081       .  S
H824        C847   1.081       .  S
H825        C842   1.082       .  S
N828        N840   1.323       .  A
N828        N844   1.322       .  A
N828       Co837   2.078       .  S
C829        N833   1.348       .  A
C829        C843   1.461       .  S
C829       C1054   1.477       .  S
C830        C849   1.466       .  S
C830        H834   1.081       .  S
N831        C842   1.344       .  A
C835        N851   1.352       .  A
C835        C847   1.463       .  S
C835        C925   1.490       .  S
Co837      Cl848   2.455       .  S
N838        C849   1.347       .  A
C839        C965   1.490       .  S
C849       C1025   1.482       .  S
C852        N870   1.351       .  A
C852        C889   1.470       .  S
C852       C1045   1.498       .  S
N853        N870   1.323       .  A
N853        N875   1.319       .  A
N853       Co890   2.090       .  S
C854        N879   1.340       .  A
C854        C892   1.462       .  S
C854        H899   1.089       .  S
H855        C896   1.082       .  S
C856        N880   1.341       .  A
C856        C860   1.465       .  S
C856        H885   1.081       .  S
Co857       N875   2.091       .  S
Co857       N865   2.103       .  S
Co857       N897   2.085       .  S
Co857       N873   2.090       .  S
Co857      Cl901   2.460       .  S
N858        C896   1.339       .  A
N858        N865   1.321       .  A
N858       Co859   2.077       .  S
Co859       N862   2.083       .  S
Co859       N879   2.084       .  S
Co859       N866   2.086       .  S
Co859      Cl901   2.445       .  S
C860        N898   1.350       .  A
C860       C1034   1.491       .  S
N861        N868   1.320       .  A
N861        N891   1.324       .  A
N861       Co894   2.083       .  S
N862        N880   1.318       .  A
N862        N898   1.324       .  A
N863        C892   1.351       .  A
N863        N873   1.325       .  A
H864        C889   1.081       .  S
N865        N886   1.328       .  A
N866        N884   1.319       .  A
N866        N871   1.324       .  A
C867        N871   1.350       .  A
C867        C895   1.457       .  S
C867        C934   1.473       .  S
N868        C883   1.340       .  A
N868       Co890   2.083       .  S
C869        N897   1.340       .  A
C869        C872   1.456       .  S
C869        H903   1.081       .  S
C872        N893   1.353       .  A
C872        C974   1.479       .  S
N873        N879   1.320       .  A
N874        C900   1.343       .  A
N874        N876   1.318       .  A
N874       Co890   2.095       .  S
N875        C889   1.344       .  A
N876        N904   1.324       .  A
N876       Co894   2.086       .  S
H877        C900   1.081       .  S
H878        C895   1.081       .  S
N880       Co894   2.086       .  S
N881        N893   1.328       .  A
N881        N897   1.322       .  A
N881       Co890   2.102       .  S
C882        N886   1.355       .  A
C882        C896   1.454       .  S
C882        C954   1.482       .  S
C883        C902   1.457       .  S
C883        H887   1.082       .  S
N884        C895   1.339       .  A
N884       Co894   2.071       .  S
C888        N904   1.351       .  A
C888        C900   1.471       .  S
C888       C1005   1.501       .  S
Co890      Cl901   2.449       .  S
N891        C902   1.349       .  A
C892        C905   1.484       .  S
Co894      Cl901   2.454       .  S
C902        C994   1.469       .  S
C905        C906   1.413       .  A
C905        C910   1.412       .  A
C906        C907   1.407       .  A
C906       Br918   1.931       .  S
C907        C908   1.411       .  A
C907       Br922   1.933       .  S
C908        C911   1.494       .  S
C908        C909   1.414       .  A
C909        C910   1.411       .  A
C909       Br917   1.931       .  S
C910       Br921   1.932       .  S
C911        C912   1.413       .  A
C911        C916   1.415       .  A
C912        C913   1.407       .  A
C912       Br923   1.929       .  S
C913        C914   1.407       .  A
C913       Br919   1.931       .  S
C914        C915   1.407       .  A
C915        C916   1.409       .  A
C915       Br924   1.930       .  S
C916       Br920   1.932       .  S
C925        C926   1.416       .  A
C925        C930   1.419       .  A
C926        C927   1.408       .  A
C926       Br938   1.928       .  S
C927        C928   1.406       .  A
C927       Br942   1.932       .  S
C928        C931   1.483       .  S
C928        C929   1.405       .  A
C929        C930   1.408       .  A
C929       Br937   1.932       .  S
C930       Br941   1.931       .  S
C931        C932   1.409       .  A
C931        C936   1.408       .  A
C932        C933   1.406       .  A
C932       Br943   1.928       .  S
C933        C934   1.409       .  A
C933       Br939   1.931       .  S
C934        C935   1.413       .  A
C935        C936   1.406       .  A
C935       Br944   1.932       .  S
C936       Br940   1.931       .  S
C945        C946   1.420       .  A
C945        C950   1.413       .  A
C946        C947   1.413       .  A
C946       Br958   1.931       .  S
C947        C948   1.408       .  A
C947       Br962   1.932       .  S
C948        C951   1.492       .  S
C948        C949   1.407       .  A
C949        C950   1.410       .  A
C949       Br957   1.931       .  S
C950       Br961   1.919       .  S
C951        C952   1.411       .  A
C951        C956   1.411       .  A
C952        C953   1.408       .  A
C952       Br963   1.930       .  S
C953        C954   1.407       .  A
C953       Br959   1.925       .  S
C954        C955   1.413       .  A
C955        C956   1.412       .  A
C955       Br964   1.931       .  S
C956       Br960   1.929       .  S
C965        C966   1.415       .  A
C965        C970   1.417       .  A
C966        C967   1.410       .  A
C966       Br978   1.931       .  S
C967        C968   1.409       .  A
C967       Br982   1.930       .  S
C968        C971   1.491       .  S
C968        C969   1.409       .  A
C969        C970   1.410       .  A
C969       Br977   1.932       .  S
C970       Br981   1.932       .  S
C971        C972   1.412       .  A
C971        C976   1.411       .  A
C972        C973   1.409       .  A
C972       Br983   1.929       .  S
C973        C974   1.408       .  A
C973       Br979   1.927       .  S
C974        C975   1.410       .  A
C975        C976   1.409       .  A
C975       Br984   1.930       .  S
C976       Br980   1.929       .  S
C985        C986   1.424       .  A
C985        C990   1.420       .  A
C986        C987   1.409       .  A
C986       Br998   1.931       .  S
C987        C988   1.405       .  A
C987      Br1002   1.935       .  S
C988        C991   1.485       .  S
C988        C989   1.405       .  A
C989        C990   1.408       .  A
C989       Br997   1.933       .  S
C990      Br1001   1.930       .  S
C991        C992   1.412       .  A
C991        C996   1.410       .  A
C992        C993   1.407       .  A
C992      Br1003   1.930       .  S
C993        C994   1.406       .  A
C993       Br999   1.928       .  S
C994        C995   1.408       .  A
C995        C996   1.406       .  A
C995      Br1004   1.931       .  S
C996      Br1000   1.930       .  S
C1005      C1006   1.419       .  A
C1005      C1010   1.424       .  A
C1006      C1007   1.409       .  A
C1006     Br1018   1.927       .  S
C1007      C1008   1.406       .  A
C1007     Br1022   1.933       .  S
C1008      C1011   1.492       .  S
C1008      C1009   1.408       .  A
C1009      C1010   1.413       .  A
C1009     Br1017   1.933       .  S
C1010     Br1021   1.934       .  S
C1011      C1012   1.412       .  A
C1011      C1016   1.412       .  A
C1012      C1013   1.408       .  A
C1012     Br1023   1.931       .  S
C1013      C1014   1.409       .  A
C1013     Br1019   1.931       .  S
C1014      C1015   1.408       .  A
C1015      C1016   1.409       .  A
C1015     Br1024   1.927       .  S
C1016     Br1020   1.929       .  S
C1025      C1026   1.414       .  A
C1025      C1030   1.407       .  A
C1026      C1027   1.410       .  A
C1026     Br1038   1.931       .  S
C1027      C1028   1.410       .  A
C1027     Br1042   1.930       .  S
C1028      C1031   1.488       .  S
C1028      C1029   1.410       .  A
C1029      C1030   1.406       .  A
C1029     Br1037   1.932       .  S
C1030     Br1041   1.921       .  S
C1031      C1032   1.408       .  A
C1031      C1036   1.408       .  A
C1032      C1033   1.409       .  A
C1032     Br1043   1.933       .  S
C1033      C1034   1.419       .  A
C1033     Br1039   1.933       .  S
C1034      C1035   1.417       .  A
C1035      C1036   1.409       .  A
C1035     Br1044   1.929       .  S
C1036     Br1040   1.932       .  S
C1045      C1046   1.419       .  A
C1045      C1050   1.423       .  A
C1046      C1047   1.410       .  A
C1046     Br1058   1.923       .  S
C1047      C1048   1.407       .  A
C1047     Br1062   1.934       .  S
C1048      C1051   1.488       .  S
C1048      C1049   1.406       .  A
C1049      C1050   1.410       .  A
C1049     Br1057   1.932       .  S
C1050     Br1061   1.934       .  S
C1051      C1052   1.411       .  A
C1051      C1056   1.409       .  A
C1052      C1053   1.409       .  A
C1052     Br1063   1.930       .  S
C1053      C1054   1.409       .  A
C1053     Br1059   1.928       .  S
C1054      C1055   1.410       .  A
C1055      C1056   1.407       .  A
C1055     Br1064   1.930       .  S
C1056     Br1060   1.929       .  S
