geometry optimzed in LAMMPS
_audit_creation_date              2020-11-30 
_audit_creation_method            'lammps2cif' 
_symmetry_space_group_name_H-M    'P1' 
_symmetry_Int_Tables_number       1 
_symmetry_cell_setting            triclinic 
loop_ 
_symmetry_equiv_pos_as_xyz 
  x,y,z 
_cell_length_a                    39.92051894 
_cell_length_b                    40.14872628822914 
_cell_length_c                    39.996687298048855 
_cell_angle_alpha                 90.07113485314294 
_cell_angle_beta                  90.03067709813713 
_cell_angle_gamma                 89.97705911177948 
loop_ 
_atom_site_label 
_atom_site_type_symbol 
_atom_site_fract_x 
_atom_site_fract_y 
_atom_site_fract_z 
_atom_site_charge 
C1          C  0.81793544  0.79763170  0.76878915     0.81100
N2          N  0.79059427  0.81720670  0.76294333    -0.77200
C3          C  0.76735872  0.82319121  0.78695917     0.83600
N4          N  0.77153887  0.80875429  0.81747627    -0.77100
C5          C  0.79860657  0.78922531  0.82431749     0.83700
N6          N  0.82177815  0.78343016  0.79960593    -0.78800
C7          C  0.31038001  0.81056513  0.34018737     0.81100
N8          N  0.28412202  0.78894378  0.33683600    -0.77200
C9          C  0.26225874  0.79142774  0.31075922     0.83600
N10         N  0.26630396  0.81698730  0.28856958    -0.77100
C11         C  0.29222511  0.83885880  0.29144096     0.83700
N12         N  0.31383327  0.83548890  0.31755499    -0.78800
C13         C  0.81568722  0.82379732  0.30738758     0.81100
N14         N  0.82136817  0.80124672  0.28235379    -0.77200
C15         C  0.81320187  0.76851627  0.28644462     0.83600
N16         N  0.79835238  0.75847704  0.31548675    -0.77100
C17         C  0.79211367  0.78063674  0.34042346     0.83700
N18         N  0.80133255  0.81299482  0.33611229    -0.78800
C19         C  0.32446465  0.29196894  0.27978396     0.81100
N20         N  0.29549842  0.30571054  0.26800379    -0.77200
C21         C  0.26946838  0.31244004  0.28891103     0.83600
N22         N  0.27265908  0.30498077  0.32196602    -0.77100
C23         C  0.30133164  0.29174791  0.33450517     0.83700
N24         N  0.32737236  0.28545751  0.31310720    -0.78800
C25         C  0.80552824  0.30997092  0.32264120     0.81100
N26         N  0.83549960  0.29697346  0.31261469    -0.77200
C27         C  0.84098282  0.28770425  0.28022808     0.83600
N28         N  0.81627111  0.29268307  0.25755451    -0.77100
C29         C  0.78641862  0.30635907  0.26655396     0.83700
N30         N  0.78083430  0.31451046  0.29924706    -0.78800
C31         C  0.75774138  0.29640202  0.82064432     0.81100
N32         N  0.74904542  0.32449884  0.80349446    -0.77200
C33         C  0.77206689  0.34837774  0.79632407     0.83600
N34         N  0.80423330  0.34385793  0.80684128    -0.77100
C35         C  0.81371119  0.31598116  0.82372136     0.83700
N36         N  0.79014565  0.29217239  0.83055406    -0.78800
C37         C  0.30996121  0.83939415  0.80141425     0.81100
N38         N  0.33382790  0.81552254  0.79719777    -0.77200
C39         C  0.32662730  0.78614320  0.78155511     0.83600
N40         N  0.29506242  0.78077838  0.76978090    -0.77100
C41         C  0.27068453  0.80434535  0.77393425     0.83700
N42         N  0.27853759  0.83351878  0.78938140    -0.78800
O43         O  0.03330250  0.00891225  0.09034454    -0.87400
C44         C  0.04196090  0.95666666  0.00439128     0.88600
Mg45       Mg  0.98725311  0.03423196  0.10312415     1.58100
O46         O  0.08613331  0.03167841  0.00702566    -0.87200
O47         O  0.08720603  0.01743647  0.08392147    -0.74500
C48         C  0.94830810  0.11911924  0.96625144     0.93600
O49         O  0.97803638  0.96950015  0.04969606    -0.74300
O50         O  0.93567874  0.10841510  0.99336018    -0.81800
Mg51       Mg  0.02868760  0.95812900  0.07570312     1.58000
C52         C  0.08721340  0.09775043  0.93010476     0.93600
O53         O  0.07766755  0.94320170  0.10355339    -0.80100
H54         H  0.11962939  0.06145859  0.02919668    -0.05400
C55         C  0.99498531  0.03631154  0.96051548     0.88500
O56         O  0.01040455  0.08393430  0.08535550    -0.74600
O57         O  0.05433146  0.96859573  0.03016449    -0.87400
O58         O  0.09192604  0.06730409  0.93751816    -0.80200
C59         C  0.12668028  0.96849037  0.95714857     0.93700
C60         C  0.10830072  0.93739741  0.09647798     0.93500
Mg61       Mg  0.02855741  0.09879842  0.98585266     1.58000
O62         O  0.97913145  0.11462467  0.95862220    -0.80100
O63         O  0.07845365  0.08576055  0.01204189    -0.74300
O64         O  0.12458292  0.96166890  0.98832464    -0.80200
O65         O  0.00052956  0.94504022  0.12244210    -0.81900
O66         O  0.93290695  0.09429109  0.07180619    -0.80200
C67         C  0.09588078  0.05950609  0.01632741     0.88000
O68         O  0.00183078  0.08688924  0.03111527    -0.87300
O69         O  0.02158046  0.04820260  0.97102136    -0.87400
O70         O  0.96790462  0.03850367  0.97706615    -0.74500
Mg71       Mg  0.10320629  0.98968789  0.03566729     1.58000
O72         O  0.10993812  0.99189294  0.94403713    -0.81900
H73         H  0.06025469  0.03547672  0.12306731    -0.05600
O74         O  0.96899737  0.02340272  0.05427124    -0.87100
H75         H  0.93625917  0.99264951  0.03225192    -0.05400
H76         H  0.02419583  0.12343771  0.05680732    -0.05600
C77         C  0.95996074  0.99529573  0.04508645     0.87900
C78         C  0.06004007  0.02105093  0.10021617     0.88500
C79         C  0.01235325  0.09923475  0.05752276     0.88600
H80         H  0.99500270  0.02280608  0.93710389    -0.05600
O81         O  0.04167467  0.97248158  0.97685293    -0.74600
Mg82       Mg  0.95296631  0.06559546  0.02548695     1.58000
H83         H  0.02986160  0.93261111  0.00566102    -0.05600
C84         C  0.97215233  0.95625535  0.13114278     0.93600
O85         O  0.94006748  0.06402162  0.11782205    -0.81800
C86         C  0.92748697  0.08910767  0.10280213     0.93600
O87         O  0.12123103  0.94684507  0.06893141    -0.81800
Mg88       Mg  0.06553680  0.02131589  0.95878328     1.58200
O89         O  0.96235576  0.98555572  0.12335619    -0.80200
O90         O  0.06068301  0.11307054  0.93926097    -0.81800
N91         N  0.27111587  0.27744204  0.87008049    -0.02600
C92         C  0.27228371  0.29954694  0.89591036     0.00000
C93         C  0.25845991  0.28576885  0.92440291    -0.22900
C94         C  0.24729023  0.25481035  0.91587710    -0.23100
C95         C  0.25456308  0.25031464  0.88243406    -0.00100
H96         H  0.25344865  0.29823975  0.94788099     0.13700
H97         H  0.23234719  0.23860248  0.93151965     0.13700
N98         N  0.87421312  0.27826818  0.26893055    -0.02600
C99         C  0.90278127  0.27824740  0.28749749     0.00000
C100        C  0.93027522  0.27175025  0.26758318    -0.22900
C101        C  0.91835336  0.26573762  0.23614564    -0.23100
C102        C  0.88388790  0.26867802  0.23761152    -0.00100
H103        H  0.95573439  0.26735157  0.27579009     0.13700
H104        H  0.93285801  0.25571608  0.21559090     0.13700
N105        N  0.29168506  0.87029864  0.27382642    -0.02600
C106        C  0.31775166  0.89195803  0.27133131     0.00000
C107        C  0.30760513  0.92132262  0.25642048    -0.22900
C108        C  0.27453027  0.91763313  0.24873407    -0.23100
C109        C  0.26532871  0.88615277  0.25910840    -0.00100
H110        H  0.32332082  0.94196516  0.24890766     0.13700
H111        H  0.25941308  0.93499383  0.23454592     0.13700
O112        O  0.08202539  0.58769138  0.56456702    -0.87400
C113        C  0.12606437  0.49798431  0.54842628     0.88600
Mg114      Mg  0.05954554  0.60117507  0.61199157     1.58100
O115        O  0.04976477  0.50883011  0.50756882    -0.87200
O116        O  0.07067992  0.58428413  0.51081132    -0.74500
C117        C  0.96261867  0.47292246  0.64743349     0.93600
O118        O  0.11998022  0.54018724  0.61559183    -0.74300
O119        O  0.97937799  0.49662394  0.66010635    -0.81800
Mg120      Mg  0.13149898  0.56754438  0.56625060     1.58000
C121        C  0.97601356  0.43690089  0.50888047     0.93600
O122        O  0.14625370  0.59670619  0.51887933    -0.80100
H123        H  0.02055086  0.53478961  0.47643738    -0.05400
C124        C  0.04485430  0.45968576  0.59728809     0.88500
O125        O  0.00745336  0.58904125  0.58996352    -0.74600
O126        O  0.11570861  0.52525201  0.53835201    -0.87400
O127        O  0.00691421  0.44071541  0.50191172    -0.80200
C128        C  0.10715689  0.45628184  0.46318561     0.93700
C129        C  0.15010446  0.59316597  0.48744973     0.93500
Mg130      Mg  0.98293345  0.49257671  0.56764950     1.58000
O131        O  0.96405342  0.46573588  0.61628016    -0.80100
O132        O  0.99669433  0.51882442  0.51825768    -0.74300
O133        O  0.11709360  0.48647903  0.46662314    -0.80200
O134        O  0.15056965  0.61025359  0.59671976    -0.81900
O135        O  0.99938586  0.57231745  0.66583262    -0.80200
C136        C  0.02241806  0.52104671  0.49959522     0.88000
O137        O  0.00090168  0.53497204  0.59538155    -0.87300
O138        O  0.03224201  0.47174126  0.57174337    -0.87400
O139        O  0.04587585  0.47562981  0.62474301    -0.74500
Mg140      Mg  0.09387591  0.53523643  0.49063487     1.58000
O141        O  0.08258042  0.44457817  0.47944703    -0.81900
H142        H  0.05683854  0.62327043  0.54018104    -0.05600
O143        O  0.06722400  0.55090316  0.62729646    -0.87100
H144        H  0.09663607  0.52431853  0.65775619    -0.05400
H145        H  0.96523329  0.56431652  0.57620379    -0.05600
C146        C  0.09456458  0.53825768  0.63473382     0.87900
C147        C  0.06953036  0.59951063  0.53879536     0.88500
C148        C  0.99001955  0.56263517  0.58699407     0.88600
H149        H  0.05641867  0.43536205  0.59589490    -0.05600
O150        O  0.10787535  0.47200109  0.54790227    -0.74600
Mg151      Mg  0.02362594  0.52519616  0.64291439     1.58000
H152        H  0.15087125  0.49650413  0.55920264    -0.05600
C153        C  0.14097842  0.61954759  0.62547540     0.93600
O154        O  0.03191865  0.61693400  0.66101085    -0.81800
C155        C  0.00593175  0.60260255  0.67285326     0.93600
O156        O  0.13910182  0.56739673  0.47214341    -0.81800
Mg157      Mg  0.05628190  0.45908545  0.52594984     1.58200
O158        O  0.11092832  0.61542023  0.63566492    -0.80200
O159        O  0.96294303  0.44952068  0.53510357    -0.81800
N160        N  0.79789713  0.31124756  0.35816100    -0.02600
C161        C  0.76690564  0.31062131  0.37251779     0.00000
C162        C  0.76946029  0.30719854  0.40680956    -0.22900
C163        C  0.80265453  0.30680388  0.41432879    -0.23100
C164        C  0.81976816  0.31003621  0.38454799    -0.00100
H165        H  0.74933288  0.30844387  0.42489366     0.13700
H166        H  0.81313090  0.30754799  0.43929121     0.13700
N167        N  0.22993226  0.77495070  0.31219439    -0.02600
C168        C  0.20676695  0.77450439  0.28716465     0.00000
C169        C  0.17662981  0.76206225  0.29863864    -0.22900
C170        C  0.18145206  0.75314468  0.33111891    -0.23100
C171        C  0.21438751  0.76036008  0.33888388    -0.00100
H172        H  0.15473927  0.75600161  0.28385641     0.13700
H173        H  0.16388276  0.73929960  0.34632543     0.13700
N174        N  0.83894325  0.78898298  0.74044879    -0.02600
C175        C  0.84225166  0.80844569  0.71271404     0.00000
C176        C  0.85942196  0.79176761  0.68783122    -0.22900
C177        C  0.86822296  0.76165645  0.70065444    -0.23100
C178        C  0.85633860  0.76049275  0.73311793    -0.00100
H179        H  0.86793170  0.80177758  0.66419540     0.13700
H180        H  0.88449358  0.74365463  0.68867446     0.13700
O181        O  0.06230947  0.06845211  0.61268536    -0.87400
C182        C  0.11224220  0.08216369  0.52474151     0.88600
Mg183      Mg  0.03445674  0.02455835  0.62529653     1.58100
O184        O  0.03844546  0.12789402  0.53153386    -0.87200
O185        O  0.05387393  0.12241335  0.60831530    -0.74500
C186        C  0.93974947  0.99573913  0.49067812     0.93600
O187        O  0.09783140  0.01494101  0.56560276    -0.74300
O188        O  0.95646547  0.98034099  0.51291153    -0.81800
Mg189      Mg  0.11221705  0.06262093  0.59394070     1.58000
C190        C  0.96935920  0.13231758  0.45789173     0.93600
O191        O  0.12867849  0.10852720  0.62420094    -0.80100
H192        H  0.01045615  0.16129020  0.55590558    -0.05400
C193        C  0.02907305  0.03912449  0.48141537     0.88500
O194        O  0.98580999  0.05059498  0.60896939    -0.74600
O195        O  0.10055490  0.09262950  0.55142683    -0.87400
O196        O  0.00056211  0.13644226  0.46321784    -0.80200
C197        C  0.10252337  0.16990393  0.48327172     0.93700
C198        C  0.13311993  0.13988869  0.62154353     0.93500
Mg199      Mg  0.96786030  0.07335876  0.51219122     1.58000
O200        O  0.94343107  0.02703357  0.48568007    -0.80100
O201        O  0.98441801  0.12125934  0.53909836    -0.74300
O202        O  0.10754269  0.16659175  0.51476320    -0.80200
O203        O  0.12757342  0.02875377  0.63644578    -0.81900
O204        O  0.97340252  0.97526873  0.59086646    -0.80200
C205        C  0.01124050  0.13799537  0.54232870     0.88000
O206        O  0.98138989  0.04420821  0.55463211    -0.87300
O207        O  0.01803387  0.06542681  0.49325886    -0.87400
O208        O  0.02715825  0.01166354  0.49707486    -0.74500
Mg209      Mg  0.08070018  0.14156163  0.56097895     1.58000
O210        O  0.07961969  0.15378332  0.46807374    -0.81900
H211        H  0.03697100  0.09445552  0.64702912    -0.05600
O212        O  0.04403802  0.00714040  0.57483401    -0.87100
H213        H  0.07200704  0.97455539  0.54929067    -0.05400
H214        H  0.94606343  0.06681903  0.58186178    -0.05600
C215        C  0.07120545  0.99766184  0.56318471     0.87900
C216        C  0.05082001  0.09489954  0.62380501     0.88500
C217        C  0.96990367  0.05402357  0.58164196     0.88600
H218        H  0.04187688  0.03976640  0.45760560    -0.05600
O219        O  0.09592335  0.08359574  0.49749798    -0.74600
Mg220      Mg  0.00095446  0.99510021  0.54529147     1.58000
H221        H  0.13642966  0.07002646  0.52491947    -0.05600
C222        C  0.11357775  0.00394871  0.65040026     0.93600
O223        O  0.00025515  0.98014944  0.63944265    -0.81800
C224        C  0.97548102  0.96969523  0.62210500     0.93600
O225        O  0.12369992  0.15611097  0.59579156    -0.81800
Mg226      Mg  0.04708400  0.10921475  0.48204642     1.58200
O227        O  0.08223373  0.99789935  0.64705361    -0.80200
O228        O  0.95344255  0.10696219  0.46861147    -0.81800
N229        N  0.23657070  0.79792545  0.76335240    -0.02600
C230        C  0.22271639  0.76755287  0.75725548     0.00000
C231        C  0.18942834  0.77043325  0.74833424    -0.22900
C232        C  0.18199946  0.80342059  0.74891878    -0.23100
C233        C  0.21090157  0.81995997  0.75814614    -0.00100
H234        H  0.17262121  0.75057401  0.74096115     0.13700
H235        H  0.15816230  0.81439625  0.74216365     0.13700
N236        N  0.30623073  0.29077420  0.37045984    -0.02600
C237        C  0.33627075  0.28824839  0.38642031     0.00000
C238        C  0.33240273  0.29169753  0.42053011    -0.22900
C239        C  0.29909749  0.29565514  0.42628661    -0.23100
C240        C  0.28312160  0.29447429  0.39560052    -0.00100
H241        H  0.35139603  0.28864071  0.43960738     0.13700
H242        H  0.28759418  0.29647564  0.45076843     0.13700
N243        N  0.81672347  0.85928956  0.30083232    -0.02600
C244        C  0.81699896  0.87371149  0.27007480     0.00000
C245        C  0.81299862  0.90775943  0.27264670    -0.22900
C246        C  0.81127035  0.91501371  0.30584578    -0.23100
C247        C  0.81435583  0.88523197  0.32303852    -0.00100
H248        H  0.81464155  0.92587979  0.25270025     0.13700
H249        H  0.81115337  0.93992252  0.31621343     0.13700
O250        O  0.48234667  0.54012614  0.05899885    -0.87400
C251        C  0.57349626  0.49619616  0.07220083     0.88600
Mg252      Mg  0.46804604  0.56523257  0.01413567     1.58100
O253        O  0.56253919  0.56969621  0.11702782    -0.87200
O254        O  0.48647829  0.55047424  0.11278295    -0.74500
C255        C  0.60059490  0.66369402  0.98165574     0.93600
O256        O  0.53011650  0.50567604  0.00464452    -0.74300
O257        O  0.57737835  0.64720959  0.96733692    -0.81800
Mg258      Mg  0.50385402  0.49162659  0.05370763     1.58000
C259        C  0.63170185  0.64250431  0.12191132     0.93600
O260        O  0.47598819  0.47378430  0.09976117    -0.80100
H261        H  0.53635300  0.59695161  0.14970450    -0.05400
C262        C  0.61165211  0.57860548  0.02827258     0.88500
O263        O  0.48250439  0.61541727  0.03838593    -0.74600
O264        O  0.54612532  0.50652854  0.08248142    -0.87400
O265        O  0.62836485  0.61125733  0.12656762    -0.80200
C266        C  0.61378809  0.50822565  0.15971853     0.93700
C267        C  0.47829550  0.47018294  0.13122830     0.93500
Mg268      Mg  0.57876256  0.63929266  0.06086643     1.58000
O269        O  0.60577213  0.66173369  0.01325863    -0.80100
O270        O  0.55209940  0.62286100  0.10913537    -0.74300
O271        O  0.58271067  0.50180315  0.15530221    -0.80200
O272        O  0.46064092  0.47406865  0.02311163    -0.81900
O273        O  0.49781721  0.62794522  0.96263124    -0.80200
C274        C  0.55017730  0.59638587  0.12646713     0.88000
O275        O  0.53659631  0.62303476  0.03187096    -0.87300
O276        O  0.60021062  0.59032511  0.05458380    -0.87400
O277        O  0.59526040  0.57897368  0.00095899    -0.74500
Mg278      Mg  0.53535658  0.52640405  0.13148465     1.58000
O279        O  0.62815629  0.53242376  0.14490435    -0.81900
H280        H  0.44666730  0.56423448  0.08441710    -0.05600
O281        O  0.51845851  0.55844871  0.99634635    -0.87100
H282        H  0.54416034  0.53123914  0.96322318    -0.05400
H283        H  0.50714788  0.65690205  0.05380449    -0.05600
C284        C  0.53097831  0.53186530  0.98682905     0.87900
C285        C  0.47065733  0.55174161  0.08520239     0.88500
C286        C  0.50887365  0.63294464  0.04154202     0.88600
H287        H  0.63586910  0.56653549  0.02882130    -0.05600
O288        O  0.60001732  0.51363179  0.07404611    -0.74600
Mg289      Mg  0.54584450  0.60262728  0.98325714     1.58000
H290        H  0.57460157  0.47214380  0.06005287    -0.05600
C291        C  0.44435324  0.48531025  0.99834218     0.93600
O292        O  0.45295740  0.59516120  0.96844200    -0.81800
C293        C  0.46693499  0.62141032  0.95722693     0.93600
O294        O  0.50266825  0.48238118  0.14780953    -0.81800
Mg295      Mg  0.61278903  0.56330471  0.09936462     1.58200
O296        O  0.44670224  0.51583426  0.98926625    -0.80200
O297        O  0.62111439  0.65684527  0.09544083    -0.81800
N298        N  0.36394141  0.32303861  0.80858615    -0.02600
C299        C  0.38690076  0.32503659  0.78352321     0.00000
C300        C  0.41571181  0.34064573  0.79454713    -0.22900
C301        C  0.41016523  0.34965330  0.82696626    -0.23100
C302        C  0.37816788  0.33927593  0.83492103    -0.00100
H303        H  0.43702080  0.34805376  0.77957347     0.13700
H304        H  0.42648511  0.36498078  0.84217839     0.13700
N305        N  0.76067824  0.30913502  0.24140089    -0.02600
C306        C  0.75241870  0.28434368  0.21980209     0.00000
C307        C  0.72896465  0.29488701  0.19681517    -0.22900
C308        C  0.72207285  0.32723771  0.20438362    -0.23100
C309        C  0.74141689  0.33554355  0.23188527    -0.00100
H310        H  0.71683883  0.28002477  0.17772251     0.13700
H311        H  0.70413100  0.34301926  0.19168312     0.13700
N312        N  0.80467035  0.77884733  0.85853913    -0.02600
C313        C  0.83478523  0.77051135  0.87222163     0.00000
C314        C  0.83193000  0.76532728  0.90620944    -0.22900
C315        C  0.79915684  0.76974746  0.91411791    -0.23100
C316        C  0.78258235  0.77753412  0.88482037    -0.00100
H317        H  0.85136593  0.75689902  0.92309458     0.13700
H318        H  0.78814383  0.76540716  0.93845274     0.13700
O319        O  0.12769472  0.53669691  0.03361230    -0.87400
C320        C  0.03773661  0.48956454  0.02201351     0.88600
Mg321      Mg  0.14142118  0.56378061  0.07793154     1.58100
O322        O  0.04611554  0.56230241  0.97510856    -0.87200
O323        O  0.12271126  0.54447935  0.97949739    -0.74500
C324        C  0.00794567  0.66047729  0.10787409     0.93600
O325        O  0.08211958  0.50202707  0.08888662    -0.74300
O326        O  0.03116647  0.64440222  0.12260530    -0.81800
Mg327      Mg  0.10873515  0.48733361  0.03992776     1.58000
C328        C  0.97535845  0.63383585  0.96932279     0.93600
O329        O  0.13704943  0.46957263  0.99310613    -0.80100
H330        H  0.07210498  0.58901679  0.94193449    -0.05400
C331        C  0.99752861  0.57272897  0.06427959     0.88500
O332        O  0.12583437  0.61277606  0.05250921    -0.74600
O333        O  0.06485402  0.49983890  0.01104335    -0.87400
O334        O  0.97824119  0.60239184  0.96575495    -0.80200
C335        C  0.99520812  0.50035134  0.93315368     0.93700
C336        C  0.13288628  0.46449724  0.96190029     0.93500
Mg337      Mg  0.02940094  0.63300410  0.02975957     1.58000
O338        O  0.00221169  0.65683575  0.07652222    -0.80100
O339        O  0.05626138  0.61563411  0.98204310    -0.74300
O340        O  0.02648112  0.49405356  0.93687779    -0.80200
O341        O  0.15374967  0.47217432  0.07130883    -0.81900
O342        O  0.10996350  0.62685768  0.12756902    -0.80200
C343        C  0.05826854  0.58885796  0.96517064     0.88000
O344        O  0.07158126  0.61836323  0.05903165    -0.87300
O345        O  0.00867413  0.58389781  0.03763055    -0.87400
O346        O  0.01394511  0.57424449  0.09153547    -0.74500
Mg347      Mg  0.07401025  0.51906887  0.96145939     1.58000
O348        O  0.98076231  0.52365466  0.94924330    -0.81900
H349        H  0.16237572  0.56067799  0.00682495    -0.05600
O350        O  0.09130130  0.55557026  0.09610678    -0.87100
H351        H  0.06653559  0.52800935  0.12959385    -0.05400
H352        H  0.09956482  0.65303170  0.03660731    -0.05600
C353        C  0.07984578  0.52866202  0.10605983     0.87900
C354        C  0.13873408  0.54754636  0.00684789     0.88500
C355        C  0.09883403  0.62923586  0.04920973     0.88600
H356        H  0.97358914  0.56013368  0.06410687    -0.05600
O357        O  0.01091401  0.50659143  0.01990638    -0.74600
Mg358      Mg  0.06287532  0.59953069  0.10817856     1.58000
H359        H  0.03708668  0.46590231  0.03487923    -0.05600
C360        C  0.16852193  0.48557129  0.09613304     0.93600
O361        O  0.15615810  0.59586154  0.12310908    -0.81800
C362        C  0.14105053  0.62199868  0.13326313     0.93600
O363        O  0.10695053  0.47484060  0.94642258    -0.81800
Mg364      Mg  0.99613152  0.55546817  0.99377569     1.58200
O365        O  0.16366714  0.51613046  0.10394758    -0.80200
O366        O  0.98732047  0.64917435  0.99463051    -0.81800
N367        N  0.81649387  0.74500081  0.25931130    -0.02600
C368        C  0.79218919  0.72329006  0.24973116     0.00000
C369        C  0.80283475  0.70334113  0.22375109    -0.22900
C370        C  0.83465430  0.71293026  0.21653717    -0.23100
C371        C  0.84265431  0.73866724  0.23817571    -0.00100
H372        H  0.78831846  0.68480458  0.21044217     0.13700
H373        H  0.85035261  0.70258059  0.19704552     0.13700
N374        N  0.23691592  0.32140273  0.27566118    -0.02600
C375        C  0.20810267  0.32430998  0.29359603     0.00000
C376        C  0.18105535  0.32905378  0.27261789    -0.22900
C377        C  0.19357925  0.33091305  0.24092184    -0.23100
C378        C  0.22796707  0.32728075  0.24331525    -0.00100
H379        H  0.15560127  0.33490814  0.27986686     0.13700
H380        H  0.17959776  0.33864522  0.21906226     0.13700
N381        N  0.84909064  0.30909499  0.82834102    -0.02600
C382        C  0.86304023  0.27872090  0.83421096     0.00000
C383        C  0.89755249  0.28049724  0.83344761    -0.22900
C384        C  0.90556445  0.31292073  0.82786632    -0.23100
C385        C  0.87574921  0.33040029  0.82546046    -0.00100
H386        H  0.91509057  0.26076755  0.83930646     0.13700
H387        H  0.93066177  0.32309128  0.82868234     0.13700
O388        O  0.62123362  0.05612826  0.07420465    -0.87400
C389        C  0.53037535  0.10135095  0.08681214     0.88600
Mg390      Mg  0.63665371  0.03266925  0.02901771     1.58100
O391        O  0.53792845  0.02401902  0.12571438    -0.87200
O392        O  0.61419281  0.04243116  0.12690078    -0.74500
C393        C  0.50442176  0.94165299  0.98149428     0.93600
O394        O  0.57696695  0.09543393  0.02018843    -0.74300
O395        O  0.52965749  0.95832237  0.97186031    -0.81800
Mg396      Mg  0.60155474  0.10568149  0.07096907     1.58000
C397        C  0.46787141  0.95245804  0.12265910     0.93600
O398        O  0.62766147  0.11865813  0.11996053    -0.80100
H399        H  0.56157066  0.99330704  0.15722566    -0.05400
C400        C  0.49222394  0.02343059  0.03467311     0.88500
O401        O  0.61904175  0.98193280  0.04969612    -0.74600
O402        O  0.55723138  0.08983670  0.09724032    -0.87400
O403        O  0.47254946  0.98317865  0.12913969    -0.80200
C404        C  0.48516713  0.08245084  0.17196786     0.93700
C405        C  0.62326794  0.12016806  0.15147236     0.93500
Mg406      Mg  0.52076764  0.95897711  0.06364485     1.58000
O407        O  0.49513402  0.94151971  0.01225686    -0.80100
O408        O  0.54575560  0.97091165  0.11449257    -0.74300
O409        O  0.51634783  0.08973392  0.16966236    -0.80200
O410        O  0.64700076  0.12482427  0.04156766    -0.81900
O411        O  0.60735966  0.97475823  0.97345949    -0.80200
C412        C  0.54867578  0.99615152  0.13361659     0.88000
O413        O  0.56523943  0.97630008  0.03925628    -0.87300
O414        O  0.50195712  0.00924643  0.06040502    -0.87400
O415        O  0.51005385  0.02472234  0.00833854    -0.74500
Mg416      Mg  0.56482439  0.06595595  0.14509406     1.58000
O417        O  0.47215400  0.05945028  0.15426785    -0.81900
H418        H  0.65520529  0.02983464  0.09973711    -0.05600
O419        O  0.58737147  0.04272838  0.00980116    -0.87100
H420        H  0.56423543  0.07231027  0.97687757    -0.05400
H421        H  0.59224937  0.94057973  0.06129861    -0.05600
C422        C  0.57621474  0.07015122  0.00103494     0.87900
C423        C  0.63138961  0.04267404  0.10013912     0.88500
C424        C  0.59200893  0.96511916  0.05019546     0.88600
H425        H  0.46834795  0.03616361  0.03500215    -0.05600
O426        O  0.50349642  0.08429541  0.08639471    -0.74600
Mg427      Mg  0.55980744  0.00063084  0.99234028     1.58000
H428        H  0.53003099  0.12628668  0.07664192    -0.05600
C429        C  0.66305146  0.11278460  0.01677307     0.93600
O430        O  0.65373060  0.00427851  0.98242957    -0.81800
C431        C  0.63870919  0.97931225  0.96966757     0.93600
O432        O  0.59725563  0.10824970  0.16557169    -0.81800
Mg433      Mg  0.48873930  0.03282672  0.10675451     1.58200
O434        O  0.65974005  0.08226172  0.00802239    -0.80200
O435        O  0.47622849  0.93970873  0.09460872    -0.81800
N436        N  0.73237448  0.27145713  0.82691836    -0.02600
C437        C  0.70848318  0.26239364  0.80444031     0.00000
C438        C  0.68641606  0.23972599  0.81793388    -0.22900
C439        C  0.69700901  0.23385130  0.84969668    -0.23100
C440        C  0.72539097  0.25298974  0.85478457    -0.00100
H441        H  0.66611473  0.22711633  0.80519333     0.13700
H442        H  0.68599908  0.21630173  0.86704356     0.13700
N443        N  0.35248314  0.28770378  0.25721693    -0.02600
C444        C  0.36291009  0.31112164  0.23496358     0.00000
C445        C  0.38930965  0.29964292  0.21592518    -0.22900
C446        C  0.39589280  0.26820898  0.22652742    -0.23100
C447        C  0.37350723  0.26119433  0.25194373    -0.00100
H448        H  0.40317307  0.31331404  0.19716044     0.13700
H449        H  0.41545586  0.25207791  0.21703384     0.13700
N450        N  0.31952045  0.87313982  0.81020864    -0.02600
C451        C  0.29885293  0.90008035  0.81046817     0.00000
C452        C  0.31694539  0.92904914  0.81460845    -0.22900
C453        C  0.34956917  0.91977576  0.81891743    -0.23100
C454        C  0.35058499  0.88532596  0.81734335    -0.00100
H455        H  0.30703812  0.95383035  0.81863709     0.13700
H456        H  0.36955513  0.93615389  0.82696517     0.13700
O457        O  0.51899488  0.46950856  0.55214842    -0.87400
C458        C  0.51078058  0.55781498  0.60173632     0.88600
Mg459      Mg  0.56287962  0.45338036  0.52637100     1.58100
O460        O  0.46891394  0.55406811  0.52531630    -0.87200
O461        O  0.46567738  0.47751479  0.54150562    -0.74500
C462        C  0.61064268  0.58508982  0.43614878     0.93600
O463        O  0.57558818  0.51044651  0.59008828    -0.74300
O464        O  0.62085452  0.55915364  0.45123411    -0.81800
Mg465      Mg  0.52454312  0.48687159  0.60220040     1.58000
C466        C  0.47282405  0.62746452  0.45636920     0.93600
O467        O  0.47533571  0.46163770  0.61694463    -0.80100
H468        H  0.43544912  0.53274148  0.49486075    -0.05400
C469        C  0.56220794  0.59646485  0.52179950     0.88500
O470        O  0.54025916  0.47232015  0.47685320    -0.74600
O471        O  0.49891985  0.53199829  0.58955315    -0.87400
O472        O  0.46674692  0.62162519  0.48705587    -0.80200
C473        C  0.42606059  0.60575102  0.58628283     0.93700
C474        C  0.44401881  0.46680589  0.62040164     0.93500
Mg475      Mg  0.52919023  0.57111993  0.45809576     1.58000
O476        O  0.58026904  0.59528056  0.43882630    -0.80100
O477        O  0.47794331  0.54774428  0.47142557    -0.74300
O478        O  0.42784776  0.57452035  0.59258479    -0.80200
O479        O  0.55302790  0.44053289  0.61806840    -0.81900
O480        O  0.61933054  0.48147016  0.46688005    -0.80200
C481        C  0.45962104  0.54464187  0.49730437     0.88000
O482        O  0.55312494  0.52537262  0.47209402    -0.87300
O483        O  0.53533370  0.58770565  0.50907309    -0.87400
O484        O  0.58828285  0.57828013  0.52047495    -0.74500
Mg485      Mg  0.45004646  0.52642001  0.56717441     1.58000
O486        O  0.44408472  0.61921499  0.56377898    -0.81900
H487        H  0.49153156  0.43666011  0.52641907    -0.05600
O488        O  0.58461979  0.50130629  0.53658608    -0.87100
H489        H  0.61844870  0.52334566  0.56612857    -0.05400
H490        H  0.52834291  0.50053111  0.43648065    -0.05600
C491        C  0.59409931  0.51170841  0.56421152     0.87900
C492        C  0.49219531  0.46005497  0.53982306     0.88500
C493        C  0.54048338  0.49958915  0.46063808     0.88600
H494        H  0.56328666  0.61980722  0.53527553    -0.05600
O495        O  0.51192887  0.58500215  0.58547770    -0.74600
Mg496      Mg  0.60167347  0.52890100  0.49430049     1.58000
H497        H  0.52171455  0.55687103  0.62646245    -0.05600
C498        C  0.57856949  0.42619764  0.60554233     0.93600
O499        O  0.60689494  0.43514483  0.49485556    -0.81800
C500        C  0.62113452  0.44998586  0.47055062     0.93600
O501        O  0.43003802  0.49340389  0.60983206    -0.81800
Mg502      Mg  0.49028352  0.60202740  0.53511192     1.58200
O503        O  0.58684741  0.43035622  0.57490050    -0.80200
O504        O  0.49969320  0.61753968  0.44227367    -0.81800
N505        N  0.78121743  0.76960000  0.37312873    -0.02600
C506        C  0.77745997  0.78981693  0.40005495     0.00000
C507        C  0.77024037  0.77151346  0.42825637    -0.22900
C508        C  0.76734734  0.73907303  0.41799306    -0.23100
C509        C  0.77258768  0.73857718  0.38372326    -0.00100
H510        H  0.76257797  0.78118281  0.45234623     0.13700
H511        H  0.75684083  0.71912828  0.43286736     0.13700
N512        N  0.35327067  0.76240874  0.77585790    -0.02600
C513        C  0.37738905  0.75405780  0.79838095     0.00000
C514        C  0.40056312  0.73261554  0.78450472    -0.22900
C515        C  0.39049406  0.72684603  0.75256236    -0.23100
C516        C  0.36134062  0.74481021  0.74772148    -0.00100
H517        H  0.42129880  0.72059284  0.79711073     0.13700
H518        H  0.40233493  0.71004878  0.73496089     0.13700
N519        N  0.76145972  0.38071506  0.78402427    -0.02600
C520        C  0.78098640  0.40840859  0.78199726     0.00000
C521        C  0.76217394  0.43585016  0.77319259    -0.22900
C522        C  0.73028308  0.42467106  0.76790836    -0.23100
C523        C  0.73049381  0.39070308  0.77361962    -0.00100
H524        H  0.77144101  0.46042858  0.76705596     0.13700
H525        H  0.71011907  0.43900589  0.75691331     0.13700
O526        O  0.56714047  0.08786601  0.59098494    -0.87400
C527        C  0.55176042  0.13589727  0.50223573     0.88600
Mg528      Mg  0.61437196  0.06394488  0.60179407     1.58100
O529        O  0.51157060  0.05914868  0.50846824    -0.87200
O530        O  0.51366494  0.07566262  0.58571739    -0.74500
C531        C  0.65175213  0.97912647  0.46522726     0.93600
O532        O  0.61945251  0.12949407  0.54601706    -0.74300
O533        O  0.66287254  0.99628785  0.48930308    -0.81800
Mg534      Mg  0.56967711  0.13824540  0.57299831     1.58000
C535        C  0.51132104  0.99120921  0.43064915     0.93600
O536        O  0.52181900  0.15377677  0.60190700    -0.80100
H537        H  0.48004228  0.02815772  0.53172877    -0.05400
C538        C  0.59883418  0.06127064  0.45772980     0.88500
O539        O  0.59263678  0.01358586  0.58383506    -0.74600
O540        O  0.54298521  0.12346356  0.52917763    -0.87400
O541        O  0.50308338  0.02091866  0.43841827    -0.80200
C542        C  0.46836927  0.12198858  0.46033052     0.93700
C543        C  0.49091640  0.15824354  0.59523359     0.93500
Mg544      Mg  0.57125431  0.99548275  0.48501069     1.58000
O545        O  0.62070170  0.97899329  0.45717349    -0.80100
O546        O  0.52146938  0.00563377  0.51272488    -0.74300
O547        O  0.47491461  0.12885830  0.49077618    -0.80200
O548        O  0.59983513  0.15431377  0.61720767    -0.81900
O549        O  0.66856439  0.00803454  0.56595353    -0.80200
C550        C  0.50320988  0.03107463  0.51804251     0.88000
O551        O  0.59823369  0.01124584  0.52916242    -0.87300
O552        O  0.57382458  0.04601157  0.46773738    -0.87400
O553        O  0.62582793  0.06256571  0.47457251    -0.74500
Mg554      Mg  0.49534228  0.10149551  0.53738487     1.58000
O555        O  0.47836146  0.09536261  0.44650991    -0.81900
H556        H  0.54241562  0.06071843  0.62486632    -0.05600
O557        O  0.62933827  0.07630924  0.55215180    -0.87100
H558        H  0.66188085  0.10686052  0.52977626    -0.05400
H559        H  0.57896392  0.97367617  0.55571309    -0.05600
C560        C  0.63816254  0.10418989  0.54254244     0.87900
C561        C  0.54130109  0.07446106  0.60165597     0.88500
C562        C  0.58976924  0.99836587  0.55600005     0.88600
H563        H  0.59717402  0.07514924  0.43463418    -0.05600
O564        O  0.54898487  0.12022873  0.47464936    -0.74600
Mg565      Mg  0.64501612  0.03629906  0.52178436     1.58000
H566        H  0.56269855  0.16052762  0.50221389    -0.05600
C567        C  0.62709637  0.14296446  0.62903399     0.93600
O568        O  0.66360897  0.03546795  0.61399673    -0.81800
C569        C  0.67557308  0.01141128  0.59682852     0.93600
O570        O  0.47732958  0.14529602  0.56949926    -0.81800
Mg571      Mg  0.52685623  0.06945117  0.45837160     1.58200
O572        O  0.63710783  0.11322600  0.62324807    -0.80200
O573        O  0.53927438  0.97866690  0.43981655    -0.81800
N574        N  0.32749423  0.81270812  0.37201468    -0.02600
C575        C  0.32898846  0.78826574  0.39540406     0.00000
C576        C  0.34389293  0.79987742  0.42436491    -0.22900
C577        C  0.35289186  0.83213730  0.41850244    -0.23100
C578        C  0.34328394  0.83939944  0.38616386    -0.00100
H579        H  0.35092271  0.78538822  0.44607125     0.13700
H580        H  0.36770705  0.84771100  0.43495111     0.13700
N581        N  0.31187028  0.22238147  0.77262812    -0.02600
C582        C  0.28919371  0.19716442  0.77192192     0.00000
C583        C  0.30321614  0.16887952  0.75796856    -0.22900
C584        C  0.33513188  0.17704330  0.74884106    -0.23100
C585        C  0.33978743  0.21002410  0.75746928    -0.00100
H586        H  0.29053317  0.14589093  0.75167206     0.13700
H587        H  0.35213457  0.16152494  0.73460290     0.13700
N588        N  0.73530662  0.83774996  0.77800538    -0.02600
C589        C  0.70778967  0.83988767  0.79800338     0.00000
C590        C  0.68047496  0.85119798  0.78013592    -0.22900
C591        C  0.69152907  0.85769531  0.74853038    -0.23100
C592        C  0.72534373  0.85021528  0.74783055    -0.00100
H593        H  0.65614046  0.85791112  0.79000025     0.13700
H594        H  0.67736990  0.87043127  0.72930244     0.13700
C595        C  0.30741827  0.25414615  0.78905853     0.81100
N596        N  0.33102771  0.27824743  0.78569734    -0.77200
C597        C  0.33306684  0.30415899  0.80762422     0.83600
N598        N  0.31140118  0.30503141  0.83397806    -0.77100
C599        C  0.28707165  0.28135699  0.83775041     0.83700
N600        N  0.28574159  0.25593127  0.81530786    -0.78800
C601        C  0.71793302  0.93263042  0.63188718     0.16900
C602        C  0.72368460  0.89929508  0.64084088    -0.32200
C603        C  0.73820390  0.89292466  0.67219310     0.21300
C604        C  0.74882407  0.91866914  0.69264734     0.03400
C605        C  0.74377145  0.95214388  0.68333810    -0.21900
C606        C  0.72687972  0.95848221  0.65308704     0.12600
S607        S  0.69554450  0.94486502  0.59766107    -0.05600
C608        C  0.69627703  0.98512356  0.61280262    -0.09000
C609        C  0.71429999  0.98874538  0.64238086    -0.25600
S610        S  0.76025817  0.90598060  0.73180806    -0.02800
C611        C  0.74660831  0.86624864  0.72218576    -0.16300
C612        C  0.73782967  0.86280398  0.68864652    -0.14300
H613        H  0.71441214  0.87915322  0.62536364     0.21100
H614        H  0.74985477  0.97222151  0.70038911     0.17100
H615        H  0.71674668  0.01189818  0.65607260     0.19600
H616        H  0.72542075  0.84094609  0.67868328     0.13000
C617        C  0.42748245  0.21022303  0.64596179     0.16900
C618        C  0.39825841  0.22545403  0.65804295    -0.32200
C619        C  0.39507563  0.22955904  0.69278150     0.21300
C620        C  0.42044224  0.22019273  0.71444244     0.03400
C621        C  0.45070036  0.20713931  0.70214483    -0.21900
C622        C  0.45326860  0.20161123  0.66751192     0.12600
S623        S  0.43287317  0.19652110  0.60580226    -0.05600
C624        C  0.47030970  0.17889725  0.61802953    -0.09000
C625        C  0.47824700  0.18422334  0.65145935    -0.25600
S626        S  0.40827739  0.21840074  0.75541134    -0.02800
C627        C  0.36813136  0.22867585  0.74317065    -0.16300
C628        C  0.36572525  0.23619619  0.70932720    -0.14300
H629        H  0.37753738  0.23082244  0.64140678     0.21100
H630        H  0.46997309  0.19845604  0.71908711     0.17100
H631        H  0.50012910  0.17410205  0.66383176     0.19600
H632        H  0.34204483  0.23942360  0.69645614     0.13000
C633        C  0.45612135  0.92846007  0.38220007     0.16900
C634        C  0.44268890  0.89979669  0.36712882    -0.32200
C635        C  0.40763000  0.89620446  0.36671250     0.21300
C636        C  0.38682066  0.92054606  0.37974619     0.03400
C637        C  0.40018634  0.95006587  0.39315352    -0.21900
C638        C  0.43526106  0.95313705  0.39461252     0.12600
S639        S  0.49776684  0.93457773  0.39080050    -0.05600
C640        C  0.48703978  0.97080712  0.41139539    -0.09000
C641        C  0.45289095  0.97773731  0.41082326    -0.25600
S642        S  0.34606201  0.90809929  0.38422455    -0.02800
C643        C  0.35716547  0.86916122  0.36956283    -0.16300
C644        C  0.39050233  0.86738376  0.35952111    -0.14300
H645        H  0.45890084  0.87989723  0.35860318     0.21100
H646        H  0.38405287  0.96853007  0.40459396     0.17100
H647        H  0.44132471  0.99867830  0.42343303     0.19600
H648        H  0.40298129  0.84423384  0.35324490     0.13000
C649        C  0.72768920  0.86961733  0.39475256     0.16900
C650        C  0.69966972  0.89062095  0.39280128    -0.32200
C651        C  0.69773652  0.91694163  0.41573656     0.21300
C652        C  0.72367438  0.92311606  0.43802191     0.03400
C653        C  0.75175590  0.90239463  0.43971471    -0.21900
C654        C  0.75261811  0.87491151  0.41834894     0.12600
S655        S  0.73180401  0.83342257  0.37316431    -0.05600
C656        C  0.76656991  0.82462623  0.39721001    -0.09000
C657        C  0.77490514  0.84901112  0.42010607    -0.25600
S658        S  0.71611197  0.95433006  0.46541088    -0.02800
C659        C  0.67662521  0.95806433  0.44827711    -0.16300
C660        C  0.67041176  0.93706364  0.42147505    -0.14300
H661        H  0.67925364  0.88528481  0.37577774     0.21100
H662        H  0.77099668  0.90627433  0.45842338     0.17100
H663        H  0.79450449  0.84672772  0.43869363     0.19600
H664        H  0.64675435  0.93523986  0.40834219     0.13000
C665        C  0.35952461  0.71957649  0.66184935     0.16900
C666        C  0.37862310  0.71032281  0.63380557    -0.32200
C667        C  0.38154037  0.67615757  0.62645959     0.21300
C668        C  0.36470113  0.65238545  0.64506040     0.03400
C669        C  0.34399153  0.66186446  0.67185025    -0.21900
C670        C  0.34246765  0.69589560  0.68026144     0.12600
S671        S  0.36184940  0.75762222  0.68101910    -0.05600
C672        C  0.34298973  0.74070559  0.71596729    -0.09000
C673        C  0.33105204  0.70855774  0.71011369    -0.25600
S674        S  0.37515392  0.61211487  0.63513095    -0.02800
C675        C  0.40291112  0.62735364  0.60582638    -0.16300
C676        C  0.40310650  0.66197398  0.60369167    -0.14300
H677        H  0.39333925  0.72860604  0.62040765     0.21100
H678        H  0.33220566  0.64323625  0.68747127     0.17100
H679        H  0.32181075  0.69259775  0.72990748     0.19600
H680        H  0.41951215  0.67613972  0.58751030     0.13000
C681        C  0.34924613  0.70156990  0.41104759     0.16900
C682        C  0.36270292  0.67821534  0.43323968    -0.32200
C683        C  0.39543047  0.66711017  0.42726235     0.21300
C684        C  0.41323461  0.67677448  0.39917250     0.03400
C685        C  0.39899932  0.69875148  0.37593277    -0.21900
C686        C  0.36704378  0.71165967  0.38309051     0.12600
S687        S  0.31561562  0.72602267  0.42035158    -0.05600
C688        C  0.32770083  0.75229421  0.38851011    -0.09000
C689        C  0.35347872  0.73963851  0.36892950    -0.25600
S690        S  0.45392484  0.66312678  0.39849311    -0.02800
C691        C  0.44703729  0.64532622  0.43705284    -0.16300
C692        C  0.41461687  0.64905751  0.44894271    -0.14300
H693        H  0.34972389  0.67181729  0.45612317     0.21100
H694        H  0.41352844  0.70798318  0.35504994     0.17100
H695        H  0.36656728  0.75415939  0.35021073     0.19600
H696        H  0.40575737  0.63983481  0.47279798     0.13000
C697        C  0.68792596  0.62392506  0.39356662     0.16900
C698        C  0.72109050  0.63280580  0.38625881    -0.32200
C699        C  0.72691107  0.66433606  0.37244645     0.21300
C700        C  0.70063223  0.68532585  0.36430432     0.03400
C701        C  0.66716488  0.67604750  0.37082442    -0.21900
C702        C  0.66147092  0.64520195  0.38662878     0.12600
S703        S  0.67694959  0.58910170  0.41510300    -0.05600
C704        C  0.63615247  0.60338020  0.41619322    -0.09000
C705        C  0.63148144  0.63350582  0.39954421    -0.25600
S706        S  0.71326659  0.72451424  0.35344225    -0.02800
C707        C  0.75401052  0.71375913  0.36364218    -0.16300
C708        C  0.75747113  0.68014646  0.37117404    -0.14300
H709        H  0.74171501  0.61691082  0.39368010     0.21100
H710        H  0.64677655  0.69328281  0.36638264     0.17100
H711        H  0.60791509  0.64679945  0.39827179     0.19600
H712        H  0.78013384  0.66947524  0.38153311     0.13000
C713        C  0.65246490  0.37360066  0.72691837     0.16900
C714        C  0.62140135  0.38331506  0.71359447    -0.32200
C715        C  0.61891774  0.38721048  0.67874986     0.21300
C716        C  0.64569485  0.38027263  0.65785622     0.03400
C717        C  0.67631537  0.36898366  0.67111213    -0.21900
C718        C  0.67921947  0.36639962  0.70613777     0.12600
S719        S  0.66302536  0.37677152  0.76827356    -0.05600
C720        C  0.70438986  0.36997493  0.75767103    -0.09000
C721        C  0.70862061  0.36287259  0.72379059    -0.25600
S722        S  0.63901084  0.39110548  0.61686853    -0.02800
C723        C  0.59995376  0.40583314  0.62810298    -0.16300
C724        C  0.59259259  0.40143887  0.66182073    -0.14300
H725        H  0.60096903  0.39050420  0.72987781     0.21100
H726        H  0.69779536  0.36512971  0.65503871     0.17100
H727        H  0.73291651  0.36170131  0.71176597     0.19600
H728        H  0.56997826  0.41030493  0.67385376     0.13000
C729        C  0.68823878  0.19402656  0.68281147     0.16900
C730        C  0.71395527  0.20505699  0.70394408    -0.32200
C731        C  0.70843539  0.23443216  0.72224432     0.21300
C732        C  0.67918234  0.25268275  0.71867527     0.03400
C733        C  0.65435885  0.24273265  0.69605538    -0.21900
C734        C  0.65924624  0.21263362  0.67895667     0.12600
S735        S  0.68747665  0.15623203  0.66297027    -0.05600
C736        C  0.64753897  0.16558314  0.64963675    -0.09000
C737        C  0.63600436  0.19661449  0.65970519    -0.25600
S738        S  0.67304330  0.28176923  0.74913447    -0.02800
C739        C  0.70912560  0.26782930  0.76819036    -0.16300
C740        C  0.72656463  0.24437821  0.74954237    -0.14300
H741        H  0.73595210  0.18985400  0.70823629     0.21100
H742        H  0.63084579  0.25609445  0.69432785     0.17100
H743        H  0.61136318  0.20650009  0.65418365     0.19600
H744        H  0.74750997  0.23018351  0.75926950     0.13000
C745        C  0.40729341  0.86853665  0.88778426     0.16900
C746        C  0.41690861  0.87346811  0.92142270    -0.32200
C747        C  0.44598334  0.89242797  0.92776139     0.21300
C748        C  0.46516665  0.90443251  0.90153652     0.03400
C749        C  0.45613461  0.89868156  0.86815033    -0.21900
C750        C  0.42651340  0.88103104  0.86189242     0.12600
S751        S  0.36913765  0.85378094  0.87500644    -0.05600
C752        C  0.37781587  0.86746227  0.83493236    -0.09000
C753        C  0.41043252  0.87916346  0.83155232    -0.25600
S754        S  0.49789586  0.92874747  0.91350176    -0.02800
C755        C  0.48591458  0.92354866  0.95467544    -0.16300
C756        C  0.45778115  0.90333972  0.95854421    -0.14300
H757        H  0.40110472  0.86505456  0.94171016     0.21100
H758        H  0.47039477  0.90958318  0.84789468     0.17100
H759        H  0.41941858  0.89188977  0.80942621     0.19600
H760        H  0.44610174  0.89773724  0.98229746     0.13000
C761        C  0.68156534  0.86246499  0.88446279     0.16900
C762        C  0.65894936  0.87441481  0.90835806    -0.32200
C763        C  0.66599256  0.90521522  0.92329983     0.21300
C764        C  0.69523168  0.92250179  0.91642000     0.03400
C765        C  0.71878020  0.90960166  0.89381648    -0.21900
C766        C  0.71088079  0.87958486  0.87748759     0.12600
S767        S  0.67260605  0.83121972  0.85695376    -0.05600
C768        C  0.70796638  0.84210301  0.83477699    -0.09000
C769        C  0.72672055  0.86717311  0.84973726    -0.25600
S770        S  0.69717376  0.96120684  0.93441501    -0.02800
C771        C  0.65768026  0.95433103  0.95035769    -0.16300
C772        C  0.64453258  0.92322428  0.94288322    -0.14300
H773        H  0.63533912  0.86187516  0.91271881     0.21100
H774        H  0.74085734  0.92375518  0.88709843     0.17100
H775        H  0.74754728  0.87961871  0.83769500     0.19600
H776        H  0.61992939  0.91466556  0.95038825     0.13000
C777        C  0.72303153  0.16063312  0.95751508     0.16900
C778        C  0.74351077  0.17034218  0.93063028    -0.32200
C779        C  0.74467233  0.20439215  0.92228376     0.21300
C780        C  0.72729741  0.22786073  0.94072987     0.03400
C781        C  0.70840965  0.21839436  0.96888546    -0.21900
C782        C  0.70602013  0.18418351  0.97631990     0.12600
S783        S  0.71321297  0.12024804  0.96744321    -0.05600
C784        C  0.68566077  0.13502389  0.99725060    -0.09000
C785        C  0.68495220  0.16966904  0.99943321    -0.25600
S786        S  0.72461489  0.26589505  0.92157913    -0.02800
C787        C  0.74383038  0.24925643  0.88659929    -0.16300
C788        C  0.75618233  0.21724082  0.89252838    -0.14300
H789        H  0.75550061  0.15183372  0.91496243     0.21100
H790        H  0.69356311  0.23653162  0.98239467     0.17100
H791        H  0.66849162  0.18357223  0.01582839     0.19600
H792        H  0.76585017  0.20141329  0.87278426     0.13000
C793        C  0.41627639  0.18336642  0.26403870     0.16900
C794        C  0.44592277  0.16514042  0.25802599    -0.32200
C795        C  0.44514575  0.14012642  0.23325489     0.21300
C796        C  0.41549683  0.13218194  0.21707656     0.03400
C797        C  0.38584065  0.14994881  0.22357772    -0.21900
C798        C  0.38719133  0.17639457  0.24660601     0.12600
S799        S  0.41422780  0.21958842  0.28644090    -0.05600
C800        C  0.37569038  0.22825187  0.26831968    -0.09000
C801        C  0.36350156  0.20122598  0.25008894    -0.25600
S802        S  0.41971924  0.10270604  0.18654445    -0.02800
C803        C  0.46231479  0.10195029  0.19407987    -0.16300
C804        C  0.47223547  0.12299412  0.22002246    -0.14300
H805        H  0.46921428  0.17207330  0.27004812     0.21100
H806        H  0.36335439  0.14512701  0.20921324     0.17100
H807        H  0.34161333  0.20276899  0.23413692     0.19600
H808        H  0.49793749  0.12647373  0.22794397     0.13000
C809        C  0.89016653  0.41442360  0.86341399     0.16900
C810        C  0.89707404  0.43656041  0.88985961    -0.32200
C811        C  0.92853689  0.45248777  0.89024804     0.21300
C812        C  0.95166778  0.44734303  0.86493809     0.03400
C813        C  0.94387295  0.42691583  0.83749510    -0.21900
C814        C  0.91286512  0.41029080  0.83760389     0.12600
S815        S  0.85803298  0.38600012  0.86294262    -0.05600
C816        C  0.87613063  0.36729894  0.82847216    -0.09000
C817        C  0.90399989  0.38464783  0.81670114    -0.25600
S818        S  0.99005210  0.46513548  0.87222449    -0.02800
C819        C  0.97475929  0.48021749  0.90959771    -0.16300
C820        C  0.94143549  0.47191931  0.91557986    -0.14300
H821        H  0.87985062  0.43917019  0.91060335     0.21100
H822        H  0.96225851  0.42211830  0.81817564     0.17100
H823        H  0.92035603  0.37539034  0.79717244     0.19600
H824        H  0.92780528  0.47861725  0.93800631     0.13000
C825        C  0.92943354  0.73210726  0.21736492     0.16900
C826        C  0.95616977  0.71059553  0.20967488    -0.32200
C827        C  0.96492582  0.70657300  0.17581556     0.21300
C828        C  0.94873894  0.72421591  0.15083466     0.03400
C829        C  0.92340380  0.74725802  0.15879731    -0.21900
C830        C  0.91382204  0.75039205  0.19256418     0.12600
S831        S  0.90835714  0.73227792  0.25463671    -0.05600
C832        C  0.87617286  0.75409374  0.23580879    -0.09000
C833        C  0.88488170  0.76523198  0.20388652    -0.25600
S834        S  0.96010397  0.71263276  0.11107036    -0.02800
C835        C  0.98717048  0.68375266  0.12818930    -0.16300
C836        C  0.98721829  0.68370847  0.16302273    -0.14300
H837        H  0.96754369  0.69530715  0.22886416     0.21100
H838        H  0.90977010  0.76003933  0.13922486     0.17100
H839        H  0.86690427  0.77634405  0.18690797     0.19600
H840        H  0.00190972  0.66686797  0.17826029     0.13000
C841        C  0.22540175  0.43844630  0.15878734     0.16900
C842        C  0.24164559  0.42699897  0.18780196    -0.32200
C843        C  0.24794331  0.39258021  0.19060229     0.21300
C844        C  0.24000620  0.37084275  0.16490891     0.03400
C845        C  0.22545784  0.38254192  0.13517127    -0.21900
C846        C  0.21742699  0.41657439  0.13318382     0.12600
S847        S  0.20973899  0.47789156  0.15329706    -0.05600
C848        C  0.19147595  0.46458154  0.11649172    -0.09000
C849        C  0.19828405  0.43144290  0.10882639    -0.25600
S850        S  0.24138149  0.32979882  0.17611478    -0.02800
C851        C  0.24920285  0.34186634  0.21685076    -0.16300
C852        C  0.25525629  0.37594823  0.21978159    -0.14300
H853        H  0.24618650  0.44366998  0.20862062     0.21100
H854        H  0.21755269  0.36532582  0.11585474     0.17100
H855        H  0.18832558  0.41837105  0.08730577     0.19600
H856        H  0.25704611  0.38862013  0.24366198     0.13000
C857        C  0.91712071  0.73878202  0.87712843     0.16900
C858        C  0.94251271  0.73108600  0.90011974    -0.32200
C859        C  0.94527985  0.69788145  0.91067856     0.21300
C860        C  0.92560581  0.67296807  0.89686264     0.03400
C861        C  0.90148242  0.68042256  0.87248438    -0.21900
C862        C  0.89692440  0.71402694  0.86385849     0.12600
S863        S  0.90227301  0.77808661  0.87081642    -0.05600
C864        C  0.86592002  0.76084381  0.85508001    -0.09000
C865        C  0.86878317  0.72686481  0.84894326    -0.25600
S866        S  0.93061914  0.63482456  0.91515351    -0.02800
C867        C  0.95843538  0.65292404  0.94269930    -0.16300
C868        C  0.96416620  0.68652837  0.93700562    -0.14300
H869        H  0.95684349  0.75063487  0.91211880     0.21100
H870        H  0.88460443  0.66134984  0.86336041     0.17100
H871        H  0.84760180  0.71135256  0.84220138     0.19600
H872        H  0.98075083  0.70198888  0.95180170     0.13000
C873        C  0.74357400  0.19789405  0.19734002     0.16900
C874        C  0.73099189  0.17540980  0.17374550    -0.32200
C875        C  0.70020414  0.16024448  0.18073883     0.21300
C876        C  0.68386796  0.16501689  0.21093937     0.03400
C877        C  0.69772942  0.18570312  0.23554467    -0.21900
C878        C  0.72733087  0.20284794  0.22757444     0.12600
S879        S  0.77251997  0.22758532  0.18796650    -0.05600
C880        C  0.76017188  0.24879786  0.22334751    -0.09000
C881        C  0.73847532  0.23089450  0.24357048    -0.25600
S882        S  0.64445032  0.14828567  0.21250954    -0.02800
C883        C  0.64971645  0.13595483  0.17160387    -0.16300
C884        C  0.68087990  0.14334504  0.15826192    -0.14300
H885        H  0.74243884  0.17310331  0.14930045     0.21100
H886        H  0.68401102  0.19122371  0.25823884     0.17100
H887        H  0.72535782  0.24176670  0.26465377     0.19600
H888        H  0.68841067  0.13812148  0.13276744     0.13000
C889        C  0.38694003  0.40666107  0.66925052     0.16900
C890        C  0.36442936  0.39258697  0.69219222    -0.32200
C891        C  0.37256258  0.36129327  0.70579004     0.21300
C892        C  0.40073779  0.34394607  0.69545066     0.03400
C893        C  0.42207902  0.35709379  0.67106499    -0.21900
C894        C  0.41517867  0.38922130  0.65925596     0.12600
S895        S  0.38559384  0.44702287  0.65522219    -0.05600
C896        C  0.42413753  0.44053352  0.63690967    -0.09000
C897        C  0.43638183  0.40839912  0.64061515    -0.25600
S898        S  0.41151498  0.31157564  0.72077728    -0.02800
C899        C  0.37963689  0.32322981  0.74744182    -0.16300
C900        C  0.35928386  0.34821489  0.73455711    -0.14300
H901        H  0.34348659  0.40689931  0.70168412     0.21100
H902        H  0.44516447  0.34450804  0.66448880     0.17100
H903        H  0.46045472  0.39990987  0.63145502     0.19600
H904        H  0.34048573  0.36113408  0.74920144     0.13000
C905        C  0.67350539  0.70332730  0.18361807     0.16900
C906        C  0.69127756  0.72971494  0.19817725    -0.32200
C907        C  0.70975603  0.72300612  0.22728672     0.21300
C908        C  0.70878339  0.69199769  0.24244005     0.03400
C909        C  0.68918166  0.66624811  0.22911657    -0.21900
C910        C  0.67268785  0.67230335  0.19874754     0.12600
S911        S  0.65555971  0.70445071  0.14478379    -0.05600
C912        C  0.64774120  0.66242460  0.14852868    -0.09000
C913        C  0.65769874  0.64883001  0.17886911    -0.25600
S914        S  0.73978107  0.68571083  0.27105298    -0.02800
C915        C  0.75671527  0.72346861  0.25943835    -0.16300
C916        C  0.73586818  0.74197201  0.23879525    -0.14300
H917        H  0.69366260  0.75332336  0.18532878     0.21100
H918        H  0.69000212  0.64146084  0.23974753     0.17100
H919        H  0.65526679  0.62280008  0.18553574     0.19600
H920        H  0.74392811  0.76449342  0.22622461     0.13000
C921        C  0.65941315  0.70569192  0.91736021     0.16900
C922        C  0.68195531  0.71218116  0.89106582    -0.32200
C923        C  0.70099576  0.74167234  0.89248821     0.21300
C924        C  0.69655097  0.76430912  0.91824063     0.03400
C925        C  0.67369472  0.75805739  0.94430044    -0.21900
C926        C  0.65593198  0.72780496  0.94377067     0.12600
S927        S  0.63633715  0.67003585  0.92166805    -0.05600
C928        C  0.62284516  0.68423883  0.96015770    -0.09000
C929        C  0.63530685  0.71547989  0.96862565    -0.25600
S930        S  0.72526798  0.79577242  0.91843262    -0.02800
C931        C  0.74539511  0.77731353  0.88478428    -0.16300
C932        C  0.72842419  0.74939162  0.87284580    -0.14300
H933        H  0.68591077  0.69405558  0.87138758     0.21100
H934        H  0.67153868  0.77503174  0.96524914     0.17100
H935        H  0.62977758  0.72835637  0.99177652     0.19600
H936        H  0.73870927  0.73248207  0.85438946     0.13000
C937        C  0.40221828  0.42065151  0.16195582     0.16900
C938        C  0.37467698  0.39923870  0.16427627    -0.32200
C939        C  0.36636304  0.38694258  0.19595983     0.21300
C940        C  0.38346728  0.39707422  0.22435328     0.08200
C941        C  0.40985021  0.42011705  0.22224598    -0.21900
C942        C  0.41955739  0.43074564  0.19025765     0.12600
S943        S  0.41964303  0.43319281  0.12525658    -0.05600
C944        C  0.45116689  0.45182462  0.14805025    -0.09000
C945        C  0.44770647  0.44887863  0.18243845    -0.25600
S946        S  0.37588944  0.37288813  0.25854448    -0.02800
C947        C  0.35313520  0.34640191  0.23329683    -0.16300
C948        C  0.34718270  0.35925067  0.20162806    -0.14300
H949        H  0.36245866  0.38991122  0.14196359     0.21100
H950        H  0.42443441  0.42664416  0.24412632     0.17100
H951        H  0.46516132  0.45879174  0.20063137     0.19600
H952        H  0.33639314  0.34470311  0.18147398     0.13000
C953        C  0.65526211  0.44500851  0.21975470     0.16900
C954        C  0.66228789  0.41809246  0.24103387    -0.32200
C955        C  0.69572746  0.40731586  0.24354597     0.21300
C956        C  0.72113589  0.42305312  0.22617545     0.03400
C957        C  0.71438287  0.45113003  0.20627365    -0.21900
C958        C  0.68080989  0.46136552  0.20305351     0.12600
S959        S  0.61588065  0.45835027  0.20924341    -0.05600
C960        C  0.63387768  0.48658500  0.18218271    -0.09000
C961        C  0.66872595  0.48552211  0.18181622    -0.25600
S962        S  0.75790814  0.40112528  0.22551908    -0.02800
C963        C  0.73826341  0.36906716  0.24655931    -0.16300
C964        C  0.70611116  0.37763572  0.25711638    -0.14300
H965        H  0.64221392  0.40448059  0.25304509     0.21100
H966        H  0.73401026  0.46273054  0.19168933     0.17100
H967        H  0.68435585  0.50056686  0.16567280     0.19600
H968        H  0.68863323  0.35970107  0.26738630     0.13000
C969        C  0.40373492  0.67655918  0.91028265     0.16900
C970        C  0.37650940  0.68936843  0.89225677    -0.32200
C971        C  0.38045156  0.72058244  0.87694627     0.21300
C972        C  0.40966552  0.73882311  0.88061273     0.03400
C973        C  0.43633162  0.72667488  0.89990107    -0.21900
C974        C  0.43300218  0.69479133  0.91381186     0.12600
S975        S  0.40553712  0.63745529  0.92700927    -0.05600
C976        C  0.44640186  0.64551921  0.93840776    -0.09000
C977        C  0.45757072  0.67712326  0.92992314    -0.25600
S978        S  0.41290730  0.77164129  0.85380460    -0.02800
C979        C  0.37640502  0.75847876  0.83481729    -0.16300
C980        C  0.36034582  0.73313658  0.85218108    -0.14300
H981        H  0.35427994  0.67447477  0.88806580     0.21100
H982        H  0.45976813  0.74016048  0.90148100     0.17100
H983        H  0.48244402  0.68660500  0.93506160     0.19600
H984        H  0.33918286  0.71942824  0.84219621     0.13000
C985        C  0.36354913  0.40261122  0.89889541     0.16900
C986        C  0.36936056  0.43499972  0.91121807    -0.32200
C987        C  0.38943619  0.43833121  0.93996748     0.21300
C988        C  0.40109957  0.41042930  0.95673914     0.03400
C989        C  0.39462544  0.37821386  0.94490598    -0.21900
C990        C  0.37655319  0.37500982  0.91507400     0.12600
S991        S  0.34733025  0.39382322  0.86040177    -0.05600
C992        C  0.36142940  0.35331740  0.86451007    -0.09000
C993        C  0.37470650  0.34666623  0.89587062    -0.25600
S994        S  0.42692194  0.41897626  0.98940178    -0.02800
C995        C  0.42360178  0.46076690  0.97987955    -0.16300
C996        C  0.40232358  0.46751882  0.95315978    -0.14300
H997        H  0.36104295  0.45666926  0.89741879     0.21100
H998        H  0.40565838  0.35669005  0.95694761     0.17100
H999        H  0.38799501  0.32392831  0.90194281     0.19600
H1000       H  0.39764780  0.49212217  0.94313256     0.13000
C1001       C  0.41564992  0.24509608  0.39196880     0.16900
C1002       C  0.43963715  0.23175553  0.41366366    -0.32200
C1003       C  0.43986049  0.19716736  0.41793541     0.21300
C1004       C  0.41927245  0.17645305  0.39926327     0.03400
C1005       C  0.39606809  0.18974867  0.37667857    -0.21900
C1006       C  0.39384749  0.22454275  0.37456659     0.12600
S1007       S  0.40466785  0.28600611  0.39181315    -0.05600
C1008       C  0.36764053  0.27465876  0.37268297    -0.09000
C1009       C  0.36703024  0.24173326  0.36210257    -0.25600
S1010       S  0.42262887  0.13519779  0.40902728    -0.02800
C1011       C  0.45065915  0.14637093  0.43975924    -0.16300
C1012       C  0.45765880  0.18005030  0.44151148    -0.14300
H1013       H  0.45506935  0.24779097  0.42908276     0.21100
H1014       H  0.37837794  0.17380832  0.36379458     0.17100
H1015       H  0.34478947  0.22941694  0.35267488     0.19600
H1016       H  0.47505361  0.19132800  0.45896669     0.13000
C1017       C  0.86197771  0.89694339  0.40403840     0.16900
C1018       C  0.89024533  0.90217851  0.42451531    -0.32200
C1019       C  0.89259627  0.93265880  0.44196110     0.21300
C1020       C  0.86751348  0.95643252  0.43974545     0.03400
C1021       C  0.83843594  0.95030082  0.42098541    -0.21900
C1022       C  0.83650689  0.92028737  0.40293651     0.12600
S1023       S  0.85821964  0.86614446  0.37435173    -0.05600
C1024       C  0.82258631  0.88558338  0.35942249    -0.09000
C1025       C  0.81328824  0.91304364  0.37872576    -0.25600
S1026       S  0.87685865  0.99345668  0.45896945    -0.02800
C1027       C  0.91485842  0.97676448  0.47071789    -0.16300
C1028       C  0.91953309  0.94395223  0.46037395    -0.14300
H1029       H  0.91067066  0.88443353  0.42484031     0.21100
H1030       H  0.81921492  0.96919516  0.41856419     0.17100
H1031       H  0.79314214  0.92990901  0.37216906     0.19600
H1032       H  0.94202482  0.92959076  0.46499768     0.13000
C1033       C  0.17809073  0.94403515  0.68944343     0.16900
C1034       C  0.20448339  0.92147224  0.69507736    -0.32200
C1035       C  0.20308085  0.90155722  0.72395842     0.21300
C1036       C  0.17730358  0.90518577  0.74684513     0.03400
C1037       C  0.15115057  0.92794477  0.74140904    -0.21900
C1038       C  0.15164252  0.94657181  0.71176259     0.12600
S1039       S  0.17371313  0.96838815  0.65467924    -0.05600
C1040       C  0.13517845  0.98099976  0.66964062    -0.09000
C1041       C  0.12670314  0.96739553  0.70033677    -0.25600
S1042       S  0.17723495  0.87593089  0.77760344    -0.02800
C1043       C  0.21091905  0.85671813  0.75841489    -0.16300
C1044       C  0.22279816  0.87414754  0.73080787    -0.14300
H1045       H  0.22421591  0.91824498  0.67678704     0.21100
H1046       H  0.13019572  0.92948276  0.75852254     0.17100
H1047       H  0.10353052  0.97236558  0.71348805     0.19600
H1048       H  0.24130706  0.86439084  0.71359011     0.13000
C1049       C  0.17689608  0.19425001  0.68768331     0.16900
C1050       C  0.19727542  0.21739898  0.70426955    -0.32200
C1051       C  0.21087468  0.20804070  0.73527045     0.21300
C1052       C  0.20264478  0.17797648  0.75016602     0.03400
C1053       C  0.18063221  0.15574384  0.73451315    -0.21900
C1054       C  0.16913636  0.16402149  0.70246887     0.12600
S1055       S  0.16372464  0.19782304  0.64710624    -0.05600
C1056       C  0.14885197  0.15763041  0.64975842    -0.09000
C1057       C  0.15293493  0.14302966  0.68091133    -0.25600
S1058       S  0.22816443  0.16700892  0.78248095    -0.02800
C1059       C  0.25254599  0.20128173  0.77339574    -0.16300
C1060       C  0.23832856  0.22242300  0.74989277    -0.14300
H1061       H  0.20516899  0.24005741  0.69190164     0.21100
H1062       H  0.17587715  0.13136754  0.74506956     0.17100
H1063       H  0.14549844  0.11784170  0.68712624     0.19600
H1064       H  0.25157987  0.24312617  0.73864037     0.13000
C1065       C  0.19601237  0.27559382  0.42503237     0.16900
C1066       C  0.17245725  0.26801432  0.45008178    -0.32200
C1067       C  0.15622299  0.23697757  0.44853352     0.21300
C1068       C  0.16160502  0.21549783  0.42191414     0.03400
C1069       C  0.18505416  0.22319041  0.39677793    -0.21900
C1070       C  0.20289533  0.25329554  0.39949796     0.12600
S1071       S  0.22279431  0.30856515  0.42654327    -0.05600
C1072       C  0.24602685  0.29072724  0.39455666    -0.09000
C1073       C  0.23120202  0.26208986  0.38160778    -0.25600
S1074       S  0.13978145  0.17894375  0.42465017    -0.02800
C1075       C  0.12457447  0.19174868  0.46296198    -0.16300
C1076       C  0.13538785  0.22329991  0.47246390    -0.14300
H1077       H  0.16864591  0.28464132  0.47108394     0.21100
H1078       H  0.19065611  0.20547962  0.37712514     0.17100
H1079       H  0.24324500  0.24576347  0.36370480     0.19600
H1080       H  0.12855066  0.23546021  0.49566077     0.13000
C1081       C  0.87513040  0.89332800  0.70762850     0.16900
C1082       C  0.90318110  0.91456830  0.70800037    -0.32200
C1083       C  0.91415325  0.92761023  0.67727222     0.21300
C1084       C  0.89662696  0.92132744  0.64799933     0.03400
C1085       C  0.86767704  0.90167313  0.64795599    -0.21900
C1086       C  0.85787776  0.88713482  0.67821054     0.12600
S1087       S  0.86459047  0.86705969  0.73948742    -0.05600
C1088       C  0.83963833  0.84520849  0.71185575    -0.09000
C1089       C  0.83611865  0.86090245  0.68111072    -0.25600
S1090       S  0.91517850  0.93634567  0.61286688    -0.02800
C1091       C  0.94745472  0.95108695  0.63745152    -0.16300
C1092       C  0.94341973  0.94495928  0.67142204    -0.14300
H1093       H  0.91767807  0.91812372  0.73061175     0.21100
H1094       H  0.85515368  0.89546732  0.62473659     0.17100
H1095       H  0.82404789  0.84943499  0.65972401     0.19600
H1096       H  0.96112712  0.95219976  0.69061058     0.13000
C1097       C  0.19842157  0.68207947  0.18223809     0.16900
C1098       C  0.22227393  0.69672105  0.20346212    -0.32200
C1099       C  0.21671246  0.72972059  0.21394615     0.21300
C1100       C  0.18959810  0.74789527  0.20237302     0.03400
C1101       C  0.16644664  0.73367675  0.18015893    -0.21900
C1102       C  0.17093572  0.70012624  0.17129948     0.12600
S1103       S  0.19813266  0.64107971  0.17027169    -0.05600
C1104       C  0.15999848  0.64808888  0.15126990    -0.09000
C1105       C  0.14878820  0.68075837  0.15368826    -0.25600
S1106       S  0.18293391  0.78426145  0.22346275    -0.02800
C1107       C  0.21424470  0.77290080  0.25104668    -0.16300
C1108       C  0.23209781  0.74500633  0.24057187    -0.14300
H1109       H  0.24271337  0.68213694  0.21359683     0.21100
H1110       H  0.14424194  0.74721098  0.17256541     0.17100
H1111       H  0.12540597  0.68981172  0.14337204     0.19600
H1112       H  0.25028939  0.73230769  0.25613846     0.13000
C1113       C  0.67505326  0.41019896  0.40138862     0.16900
C1114       C  0.69991516  0.40294797  0.37769901    -0.32200
C1115       C  0.70474989  0.36944481  0.36879260     0.21300
C1116       C  0.68430688  0.34454316  0.38129567     0.03400
C1117       C  0.65856332  0.35195439  0.40404421    -0.21900
C1118       C  0.65524332  0.38514653  0.41466107     0.12600
S1119       S  0.66861647  0.44850261  0.41891557    -0.05600
C1120       C  0.63978407  0.43044343  0.44535613    -0.09000
C1121       C  0.63502920  0.39658317  0.44002148    -0.25600
S1122       S  0.69862171  0.30527629  0.37351895    -0.02800
C1123       C  0.73511241  0.32254610  0.35798408    -0.16300
C1124       C  0.73285547  0.35681659  0.35356793    -0.14300
H1125       H  0.71673421  0.42219644  0.36891435     0.21100
H1126       H  0.64391012  0.33228368  0.41537853     0.17100
H1127       H  0.61795395  0.38110276  0.45417237     0.19600
H1128       H  0.75414457  0.37229874  0.34717943     0.13000
C1129       C  0.21186790  0.66403471  0.67176286     0.16900
C1130       C  0.23694945  0.68675684  0.68051172    -0.32200
C1131       C  0.23876504  0.69666143  0.71406072     0.21300
C1132       C  0.21906385  0.68182629  0.73839002     0.03400
C1133       C  0.19531892  0.65755675  0.72988640    -0.21900
C1134       C  0.19097295  0.65046424  0.69586284     0.12600
S1135       S  0.20046381  0.65527824  0.63165801    -0.05600
C1136       C  0.16600422  0.63491138  0.64745254    -0.09000
C1137       C  0.16447726  0.63369061  0.68200830    -0.25600
S1138       S  0.21839384  0.70280997  0.77533129    -0.02800
C1139       C  0.23931634  0.73493563  0.75578989    -0.16300
C1140       C  0.25208759  0.72623069  0.72477601    -0.14300
H1141       H  0.25130603  0.69943150  0.66139987     0.21100
H1142       H  0.17796106  0.64808752  0.74838073     0.17100
H1143       H  0.14452501  0.62208815  0.69615890     0.19600
H1144       H  0.26286393  0.74417522  0.70764558     0.13000
C1145       C  0.93104857  0.64302052  0.71906342     0.16900
C1146       C  0.89852336  0.65319588  0.72789893    -0.32200
C1147       C  0.89465309  0.68423216  0.74374926     0.21300
C1148       C  0.92217104  0.70326633  0.75243003     0.03400
C1149       C  0.95490585  0.69287202  0.74401117    -0.21900
C1150       C  0.95860752  0.66281269  0.72607590     0.12600
S1151       S  0.94007457  0.60836929  0.69593074    -0.05600
C1152       C  0.98133776  0.62110950  0.69394607    -0.09000
C1153       C  0.98758779  0.65054488  0.71142927    -0.25600
S1154       S  0.91182019  0.74212675  0.76665234    -0.02800
C1155       C  0.87042003  0.73489982  0.75569513    -0.16300
C1156       C  0.86501705  0.70168815  0.74690500    -0.14300
H1157       H  0.87692550  0.63871688  0.72032936     0.21100
H1158       H  0.97624280  0.70882121  0.74881971     0.17100
H1159       H  0.01173284  0.66276442  0.71259058     0.19600
H1160       H  0.84173109  0.69289891  0.73613642     0.13000
C1161       C  0.13973935  0.38496608  0.40859407     0.16900
C1162       C  0.14299153  0.35560465  0.39004792    -0.32200
C1163       C  0.17212376  0.35151227  0.37113448     0.21300
C1164       C  0.19752373  0.37503052  0.37163743     0.03400
C1165       C  0.19465746  0.40412415  0.39099577    -0.21900
C1166       C  0.16481171  0.40888122  0.40893797     0.12600
S1167       S  0.10502878  0.39537080  0.43069452    -0.05600
C1168       C  0.12399848  0.43273732  0.44045302    -0.09000
C1169       C  0.15587905  0.43661038  0.42721563    -0.25600
S1170       S  0.22836141  0.36781347  0.34308109    -0.02800
C1171       C  0.20598445  0.33367487  0.32919450    -0.16300
C1172       C  0.17719803  0.32740169  0.34746066    -0.14300
H1173       H  0.12285443  0.33755770  0.38898168     0.21100
H1174       H  0.21394086  0.42307522  0.39050518     0.17100
H1175       H  0.17164282  0.45823574  0.43095333     0.19600
H1176       H  0.15864741  0.30887784  0.34073615     0.13000
C1177       C  0.18454876  0.67482061  0.44993874     0.16900
C1178       C  0.19024354  0.70834938  0.44175124    -0.32200
C1179       C  0.21058664  0.71534324  0.41400866     0.21300
C1180       C  0.22562611  0.69005922  0.39591032     0.03400
C1181       C  0.22019459  0.65634074  0.40430563    -0.21900
C1182       C  0.19862742  0.64926995  0.43130746     0.12600
S1183       S  0.15895045  0.66168213  0.48141038    -0.05600
C1184       C  0.16621020  0.62110782  0.46914454    -0.09000
C1185       C  0.18780676  0.61822474  0.44192943    -0.25600
S1186       S  0.24497899  0.70367735  0.36027317    -0.02800
C1187       C  0.22982179  0.74337756  0.36785366    -0.16300
C1188       C  0.21386664  0.74589081  0.39872571    -0.14300
H1189       H  0.17785341  0.72814208  0.45539802     0.21100
H1190       H  0.23070257  0.63651137  0.38922880     0.17100
H1191       H  0.19532074  0.59482602  0.43072998     0.19600
H1192       H  0.19973269  0.76761446  0.40646086     0.13000
C1193       C  0.86895808  0.43199580  0.75816011     0.16900
C1194       C  0.89576554  0.45224449  0.74863167    -0.32200
C1195       C  0.91100646  0.44554711  0.71780558     0.21300
C1196       C  0.90095719  0.41919561  0.69775716     0.03400
C1197       C  0.87546720  0.39765405  0.70832409    -0.21900
C1198       C  0.85951280  0.40494277  0.73876708     0.12600
S1199       S  0.84179154  0.44138910  0.78972771    -0.05600
C1200       C  0.81745391  0.40836053  0.77690131    -0.09000
C1201       C  0.83057121  0.39069335  0.75008915    -0.25600
S1202       S  0.91941541  0.41843296  0.65908153    -0.02800
C1203       C  0.94066758  0.45410508  0.67017399    -0.16300
C1204       C  0.93413167  0.46521217  0.70237903    -0.14300
H1205       H  0.90258734  0.47395683  0.76321690     0.21100
H1206       H  0.86671030  0.37767079  0.69235020     0.17100
H1207       H  0.81707067  0.37153647  0.73654913     0.19600
H1208       H  0.94441786  0.48767668  0.71335310     0.13000
C1209       C  0.91949242  0.40123810  0.43947280     0.16900
C1210       C  0.89707724  0.39643331  0.41274289    -0.32200
C1211       C  0.88801478  0.36357681  0.40446263     0.21300
C1212       C  0.90107006  0.33678274  0.42187194     0.03400
C1213       C  0.92444110  0.34146689  0.44778806    -0.21900
C1214       C  0.93305726  0.37431619  0.45643393     0.12600
S1215       S  0.93127591  0.43916023  0.45515724    -0.05600
C1216       C  0.95473783  0.41863900  0.48485105    -0.09000
C1217       C  0.95362420  0.38415947  0.48234265    -0.25600
S1218       S  0.88179661  0.29991065  0.41307395    -0.02800
C1219       C  0.85531718  0.32039792  0.38568238    -0.16300
C1220       C  0.86269974  0.35418028  0.38292409    -0.14300
H1221       H  0.88583860  0.41748786  0.40008842     0.21100
H1222       H  0.93394481  0.32049810  0.46192178     0.17100
H1223       H  0.96690055  0.36725730  0.49875608     0.19600
H1224       H  0.84665202  0.37189900  0.37024674     0.13000
C1225       C  0.40485116  0.90426818  0.25048597     0.16900
C1226       C  0.42777699  0.92626049  0.23599398    -0.32200
C1227       C  0.43691363  0.92051353  0.20267776     0.21300
C1228       C  0.42631817  0.89252725  0.18535419     0.03400
C1229       C  0.40524211  0.86918577  0.20076224    -0.21900
C1230       C  0.39371171  0.87643754  0.23320259     0.12600
S1231       S  0.38122463  0.91436104  0.28444576    -0.05600
C1232       C  0.35359412  0.88336441  0.27299630    -0.09000
C1233       C  0.36551778  0.86309688  0.24746156    -0.25600
S1234       S  0.43650761  0.89272721  0.14366898    -0.02800
C1235       C  0.45365374  0.93168090  0.14953831    -0.16300
C1236       C  0.45274794  0.94280786  0.18238097    -0.14300
H1237       H  0.43465372  0.94919476  0.24853727     0.21100
H1238       H  0.39500127  0.84854336  0.18662409     0.17100
H1239       H  0.35013482  0.84480386  0.23473500     0.19600
H1240       H  0.46188169  0.96682048  0.19075986     0.13000
C1241       C  0.93177400  0.24973321  0.37177326     0.16900
C1242       C  0.95408857  0.23703700  0.39551420    -0.32200
C1243       C  0.94577837  0.20673470  0.41070454     0.21300
C1244       C  0.91581595  0.19058321  0.40400142     0.03400
C1245       C  0.89289344  0.20399127  0.38118929    -0.21900
C1246       C  0.90195088  0.23349121  0.36477263     0.12600
S1247       S  0.94056944  0.28209376  0.34566496    -0.05600
C1248       C  0.90450692  0.27267995  0.32384909    -0.09000
C1249       C  0.88594145  0.24695249  0.33777546    -0.25600
S1250       S  0.91194527  0.15250019  0.42267065    -0.02800
C1251       C  0.95161611  0.15799733  0.43864363    -0.16300
C1252       C  0.96629435  0.18825894  0.43072436    -0.14300
H1253       H  0.97803098  0.24889948  0.40004545     0.21100
H1254       H  0.87013117  0.19078422  0.37475022     0.17100
H1255       H  0.86452673  0.23536625  0.32585828     0.19600
H1256       H  0.99126891  0.19581211  0.43815021     0.13000
C1257       C  0.25514136  0.38587186  0.91897620     0.16900
C1258       C  0.24157249  0.40804122  0.94244635    -0.32200
C1259       C  0.21007172  0.42187639  0.93542956     0.21300
C1260       C  0.19383638  0.41585947  0.90539034     0.03400
C1261       C  0.20825167  0.39502330  0.88119009    -0.21900
C1262       C  0.23872586  0.37940159  0.88913071     0.12600
S1263       S  0.28674093  0.35870570  0.92776447    -0.05600
C1264       C  0.27530044  0.33604658  0.89283939    -0.09000
C1265       C  0.25149770  0.35194453  0.87317500    -0.25600
S1266       S  0.15434378  0.43230885  0.90307439    -0.02800
C1267       C  0.15934596  0.44652608  0.94343674    -0.16300
C1268       C  0.19046035  0.43950296  0.95729291    -0.14300
H1269       H  0.25333501  0.41158622  0.96659973     0.21100
H1270       H  0.19469613  0.38868206  0.85860455     0.17100
H1271       H  0.23885838  0.34006093  0.85235406     0.19600
H1272       H  0.19799923  0.44610595  0.98246448     0.13000
C1273       C  0.21355277  0.92387002  0.84174765     0.16900
C1274       C  0.18780270  0.94463078  0.85292639    -0.32200
C1275       C  0.17556563  0.93942312  0.88529925     0.21300
C1276       C  0.18751335  0.91409591  0.90554921     0.03400
C1277       C  0.21220905  0.89215780  0.89364825    -0.21900
C1278       C  0.22508900  0.89786784  0.86139047     0.12600
S1279       S  0.23707667  0.93151585  0.80701422    -0.05600
C1280       C  0.26295160  0.89926854  0.81880279    -0.09000
C1281       C  0.25277263  0.88297525  0.84771414    -0.25600
S1282       S  0.17160576  0.91469866  0.94547567    -0.02800
C1283       C  0.14881442  0.94951314  0.93446491    -0.16300
C1284       C  0.15328193  0.95940499  0.90152924    -0.14300
H1285       H  0.17938316  0.96551652  0.83799993     0.21100
H1286       H  0.22246882  0.87289390  0.90957884     0.17100
H1287       H  0.26777768  0.86462372  0.86075401     0.19600
H1288       H  0.14162630  0.98100197  0.89020609     0.13000
C1289       C  0.18199176  0.88700139  0.21975618     0.16900
C1290       C  0.15321349  0.90299551  0.20735715    -0.32200
C1291       C  0.14872240  0.90399625  0.17247555     0.21300
C1292       C  0.17153672  0.88916723  0.15099512     0.03400
C1293       C  0.19935180  0.87181042  0.16349920    -0.21900
C1294       C  0.20415515  0.87131851  0.19829034     0.12600
S1295       S  0.19650538  0.89052320  0.25985777    -0.05600
C1296       C  0.23345815  0.87188185  0.24740505    -0.09000
C1297       C  0.23278247  0.86119680  0.21434367    -0.25600
S1298       S  0.16408071  0.89666279  0.10954404    -0.02800
C1299       C  0.12940776  0.91953445  0.12106817    -0.16300
C1300       C  0.12417148  0.92103393  0.15541249    -0.14300
H1301       H  0.13638942  0.91618291  0.22397901     0.21100
H1302       H  0.21772986  0.86112323  0.14671134     0.17100
H1303       H  0.25476305  0.85245540  0.20107075     0.19600
H1304       H  0.10429154  0.93507614  0.16729770     0.13000
C1305       C  0.85318448  0.21228858  0.89489035     0.16900
C1306       C  0.86262381  0.19876968  0.92584633    -0.32200
C1307       C  0.88534100  0.17204764  0.92556459     0.21300
C1308       C  0.89666135  0.15830466  0.89581138     0.03400
C1309       C  0.88517199  0.17017576  0.86500941    -0.21900
C1310       C  0.86393947  0.19797389  0.86522875     0.12600
S1311       S  0.83631256  0.25104093  0.89009895    -0.05600
C1312       C  0.84654962  0.24911415  0.84824725    -0.09000
C1313       C  0.85823419  0.21812411  0.83825787    -0.25600
S1314       S  0.92820432  0.12993289  0.90031127    -0.02800
C1315       C  0.92617089  0.13656125  0.94272869    -0.16300
C1316       C  0.90172683  0.15902899  0.95273760    -0.14300
H1317       H  0.85560425  0.21083894  0.94904384     0.21100
H1318       H  0.89527071  0.16048904  0.84182711     0.17100
H1319       H  0.86932517  0.21352629  0.81396097     0.19600
H1320       H  0.89743216  0.16665668  0.97836589     0.13000
C1321       C  0.18361043  0.19520689  0.86286211     0.16900
C1322       C  0.14977548  0.18606592  0.86707335    -0.32200
C1323       C  0.14282065  0.15612842  0.88403370     0.21300
C1324       C  0.16855166  0.13535024  0.89436734     0.03400
C1325       C  0.20225439  0.14427559  0.88976820    -0.21900
C1326       C  0.20914627  0.17505996  0.87463354     0.12600
S1327       S  0.19696607  0.23355755  0.84996621    -0.05600
C1328       C  0.23687498  0.22386528  0.86368158    -0.09000
C1329       C  0.23967903  0.19102779  0.87447526    -0.25600
S1330       S  0.15545722  0.10103688  0.91579192    -0.02800
C1331       C  0.11476572  0.11523821  0.91234276    -0.16300
C1332       C  0.11179740  0.14488553  0.89456892    -0.14300
H1333       H  0.12978718  0.20275092  0.85969843     0.21100
H1334       H  0.22221922  0.12894261  0.89973769     0.17100
H1335       H  0.26158460  0.18132042  0.88715385     0.19600
H1336       H  0.08843937  0.15795626  0.89042740     0.13000
C1337       C  0.92452731  0.89192041  0.18333430     0.16900
C1338       C  0.91400171  0.86939181  0.20789295    -0.32200
C1339       C  0.87945981  0.86378831  0.21106002     0.21300
C1340       C  0.85668090  0.87790334  0.18906937     0.03400
C1341       C  0.86738290  0.89922221  0.16352806    -0.21900
C1342       C  0.90155849  0.90700206  0.16218268     0.12600
S1343       S  0.96458910  0.90612166  0.17897654    -0.05600
C1344       C  0.94984852  0.93383343  0.14959645    -0.09000
C1345       C  0.91593041  0.93128980  0.14289985    -0.25600
S1346       S  0.81604646  0.87489453  0.20155503    -0.02800
C1347       C  0.83019376  0.85896528  0.23902405    -0.16300
C1348       C  0.86409788  0.85121400  0.23891795    -0.14300
H1349       H  0.93160374  0.85938160  0.22588739     0.21100
H1350       H  0.84945669  0.91202299  0.14778462     0.17100
H1351       H  0.90254737  0.94643255  0.12491440     0.19600
H1352       H  0.87791388  0.84418666  0.26116069     0.13000
C1353       C  0.86896326  0.21505315  0.16396166     0.16900
C1354       C  0.87989526  0.19932517  0.13445077    -0.32200
C1355       C  0.88560485  0.16473260  0.13540194     0.21300
C1356       C  0.87931814  0.14641025  0.16405202     0.03400
C1357       C  0.86659162  0.16188413  0.19293282    -0.21900
C1358       C  0.86218394  0.19667065  0.19241163     0.12600
S1359       S  0.87022419  0.25714363  0.17077863    -0.05600
C1360       C  0.86351764  0.25009341  0.21289402    -0.09000
C1361       C  0.85742550  0.21666813  0.21999680    -0.25600
S1362       S  0.89259364  0.10584678  0.16188571    -0.02800
C1363       C  0.90704831  0.11352741  0.12197175    -0.16300
C1364       C  0.90097203  0.14587992  0.11101354    -0.14300
H1365       H  0.88666429  0.21383739  0.11267433     0.21100
H1366       H  0.86313968  0.14784548  0.21577311     0.17100
H1367       H  0.85642573  0.20685343  0.24520628     0.19600
H1368       H  0.90937533  0.15572924  0.08725769     0.13000
loop_ 
_geom_bond_atom_site_label_1 
_geom_bond_atom_site_label_2 
_geom_bond_distance 
_geom_bond_site_symmetry_2 
_ccdc_geom_bond_type 
C1            N2   1.365       .  A
C1            N6   1.367       .  A
C1          N174   1.452       .  S
N2            C3   1.357       .  A
C3            N4   1.362       .  A
C3          N588   1.451       .  S
N4            C5   1.363       .  A
C5            N6   1.374       .  A
C5          N312   1.451       .  S
C7            N8   1.368       .  A
C7           N12   1.357       .  A
C7          N574   1.447       .  S
N8            C9   1.363       .  A
C9           N10   1.367       .  A
C9          N167   1.452       .  S
N10          C11   1.362       .  A
C11          N12   1.361       .  A
C11         N105   1.446       .  S
C13          N14   1.368       .  A
C13          N18   1.356       .  A
C13         N243   1.450       .  S
N14          C15   1.364       .  A
C15          N16   1.366       .  A
C15         N367   1.444       .  S
N16          C17   1.359       .  A
C17          N18   1.362       .  A
C17         N505   1.449       .  S
C19          N20   1.365       .  A
C19          N24   1.363       .  A
C19         N443   1.448       .  S
N20          C21   1.361       .  A
C21          N22   1.362       .  A
C21         N374   1.449       .  S
N22          C23   1.358       .  A
C23          N24   1.370       .  A
C23         N236   1.452       .  S
C25          N26   1.365       .  A
C25          N30   1.371       .  A
C25         N160   1.454       .  S
N26          C27   1.365       .  A
C27          N28   1.355       .  A
C27          N98   1.452       .  S
N28          C29   1.360       .  A
C29          N30   1.366       .  A
C29         N305   1.442       .  S
C31          N32   1.366       .  A
C31          N36   1.363       .  A
C31         N436   1.447       .  S
N32          C33   1.359       .  A
C33          N34   1.363       .  A
C33         N519   1.452       .  S
N34          C35   1.361       .  A
C35          N36   1.369       .  A
C35         N381   1.451       .  S
C37          N38   1.362       .  A
C37          N42   1.364       .  A
C37         N450   1.451       .  S
N38          C39   1.365       .  A
C39          N40   1.362       .  A
C39         N512   1.446       .  S
N40          C41   1.367       .  A
C41          N42   1.360       .  A
C41         N229   1.449       .  S
O43         Mg45   2.162   1_455  S
O43         Mg51   2.129   1_545  S
O43          C78   1.238       .  S
C44          O57   1.239       .  S
C44          O81   1.272   1_554  A
C44          H83   1.081       .  S
Mg45         O74   2.129       .  S
Mg45         O89   2.338   1_545  S
Mg45         O85   2.307       .  S
Mg45         O56   2.312   1_655  S
O46         Mg88   2.137   1_554  S
O46         Mg71   2.150   1_545  S
O46          C67   1.240       .  S
O47          C78   1.274       .  A
O47         Mg71   2.317   1_545  S
C48          O50   1.271       .  A
C48          O62   1.281       .  A
C48        C1315   1.469       .  S
O49          C77   1.276       .  A
O49         Mg51   2.319   1_655  S
O50         Mg82   2.255   1_556  S
Mg51         O57   2.132       .  S
Mg51         O65   2.245       .  S
Mg51         O53   2.328       .  S
C52          O90   1.278       .  A
C52          O58   1.272       .  A
C52        C1331   1.487       .  S
O53          C60   1.277       .  A
H54          C67   1.081       .  S
C55          O69   1.237   1_655  S
C55          O70   1.271       .  A
C55          H80   1.081       .  S
O56          C79   1.275       .  A
O57         Mg71   2.138       .  S
O58         Mg88   2.291       .  S
C59          O72   1.267       .  A
C59          O64   1.280       .  A
C59        C1283   1.478       .  S
C60          O87   1.275       .  A
C60        C1299   1.481       .  S
Mg61         O68   2.156   1_556  S
Mg61         O69   2.134       .  S
Mg61         O62   2.341   1_455  S
Mg61         O63   2.310   1_556  S
Mg61         O90   2.335       .  S
O63          C67   1.274       .  A
O64         Mg71   2.361   1_556  S
O65          C84   1.268   1_455  A
O66          C86   1.276       .  A
O66         Mg82   2.323       .  S
O68         Mg82   2.142   1_455  S
O68          C79   1.239       .  S
O69         Mg88   2.117       .  S
O70         Mg82   2.299   1_556  S
Mg71         O87   2.291       .  S
O72         Mg88   2.210   1_565  S
H73          C78   1.081       .  S
O74         Mg82   2.147       .  S
O74          C77   1.240   1_545  S
H75          C77   1.081       .  S
H76          C79   1.081       .  S
O81         Mg88   2.298   1_565  S
C84          O89   1.278       .  A
C84        C1344   1.467       .  S
O85          C86   1.276       .  A
C86        C1363   1.488       .  S
N91          C95   1.367       .  A
N91          C92   1.362       .  A
N91         C599   1.451       .  S
C92        C1264   1.476       .  S
C92          C93   1.383       .  A
C93          H96   1.082       .  S
C93          C94   1.364       .  A
C94          H97   1.083       .  S
C94          C95   1.381       .  A
C95        C1328   1.479       .  S
N98         C102   1.366       .  A
N98          C99   1.361       .  A
C99        C1248   1.473       .  S
C99         C100   1.381       .  A
C100        H103   1.082       .  S
C100        C101   1.365       .  A
C101        H104   1.083       .  S
C101        C102   1.382       .  A
C102       C1360   1.481       .  S
N105        C109   1.363       .  A
N105        C106   1.360       .  A
C106       C1232   1.473       .  S
C106        C107   1.382       .  A
C107        H110   1.083       .  S
C107        C108   1.364       .  A
C108        H111   1.083       .  S
C108        C109   1.381       .  A
C109       C1296   1.472       .  S
O112       Mg114   2.167       .  S
O112       Mg120   2.135       .  S
O112        C147   1.240       .  S
C113        O126   1.238       .  S
C113        O150   1.271       .  A
C113        H152   1.081       .  S
Mg114       O143   2.132       .  S
Mg114       O158   2.330       .  S
Mg114       O154   2.337       .  S
Mg114       O125   2.310       .  S
O115       Mg157   2.145       .  S
O115       Mg140   2.165       .  S
O115        C136   1.238       .  S
O116        C147   1.276       .  A
O116       Mg140   2.320       .  S
C117        O119   1.268       .  A
C117        O131   1.280       .  A
C117       C1203   1.473       .  S
O118        C146   1.274       .  A
O118       Mg120   2.306       .  S
O119       Mg151   2.217   1_655  S
Mg120       O126   2.126       .  S
Mg120       O134   2.236       .  S
Mg120       O122   2.305       .  S
C121        O159   1.276       .  A
C121        O127   1.274   1_655  A
C121       C1216   1.477       .  S
O122        C129   1.274       .  A
H123        C136   1.081       .  S
C124        O138   1.238       .  S
C124        O139   1.271       .  A
C124        H149   1.081       .  S
O125        C148   1.274   1_455  A
O126       Mg140   2.136       .  S
O127       Mg157   2.313       .  S
C128        O141   1.268       .  A
C128        O133   1.283       .  A
C128       C1168   1.473       .  S
C129        O156   1.279       .  A
C129       C1184   1.487       .  S
Mg130       O137   2.153   1_655  S
Mg130       O138   2.145   1_655  S
Mg130       O131   2.349       .  S
Mg130       O132   2.307       .  S
Mg130       O159   2.305       .  S
O132        C136   1.273   1_655  A
O133       Mg140   2.368       .  S
O134        C153   1.268       .  A
O135        C155   1.275   1_655  A
O135       Mg151   2.313   1_655  S
O137       Mg151   2.143       .  S
O137        C148   1.239   1_455  S
O138       Mg157   2.129       .  S
O139       Mg151   2.296       .  S
Mg140       O156   2.341       .  S
O141       Mg157   2.214       .  S
H142        C147   1.081       .  S
O143       Mg151   2.119       .  S
O143        C146   1.240       .  S
H144        C146   1.081       .  S
H145        C148   1.081       .  S
O150       Mg157   2.298       .  S
C153        O158   1.278       .  A
C153       C1136   1.466       .  S
O154        C155   1.278       .  A
C155       C1152   1.492   1_455  S
N160        C164   1.370       .  A
N160        C161   1.364       .  A
C161       C1123   1.476       .  S
C161        C162   1.382       .  A
C162        H165   1.082       .  S
C162        C163   1.359       .  A
C163        H166   1.083       .  S
C163        C164   1.380       .  A
C164       C1219   1.480       .  S
N167        C171   1.368       .  A
N167        C168   1.363       .  A
C168       C1107   1.477       .  S
C168        C169   1.382       .  A
C169        H172   1.082       .  S
C169        C170   1.362       .  A
C170        H173   1.083       .  S
C170        C171   1.382       .  A
C171       C1187   1.479       .  S
N174        C178   1.369       .  A
N174        C175   1.364       .  A
C175       C1088   1.480       .  S
C175        C176   1.381       .  A
C176        H179   1.083       .  S
C176        C177   1.360       .  A
C177        H180   1.083       .  S
C177        C178   1.383       .  A
C178       C1155   1.479       .  S
O181       Mg183   2.145       .  S
O181       Mg189   2.142       .  S
O181        C216   1.239       .  S
C182        O195   1.238       .  S
C182        O219   1.271       .  A
C182        H221   1.081       .  S
Mg183       O212   2.169       .  S
Mg183       O227   2.354   1_545  S
Mg183       O223   2.317   1_545  S
Mg183       O194   2.300   1_455  S
O184       Mg226   2.144       .  S
O184       Mg209   2.128       .  S
O184        C205   1.237       .  S
O185        C216   1.273       .  A
O185       Mg209   2.308       .  S
C186        O188   1.272       .  A
C186        O200   1.281   1_565  A
C186       C1027   1.484       .  S
O187        C215   1.273   1_545  A
O187       Mg189   2.296       .  S
O188       Mg220   2.276   1_655  S
Mg189       O195   2.136       .  S
Mg189       O203   2.262       .  S
Mg189       O191   2.300       .  S
C190        O228   1.275       .  A
C190        O196   1.274   1_655  A
C190       C1251   1.469       .  S
O191        C198   1.276       .  A
H192        C205   1.081       .  S
C193        O207   1.238       .  S
C193        O208   1.271       .  A
C193        H218   1.081       .  S
O194        C217   1.271       .  A
O195       Mg209   2.152       .  S
O196       Mg226   2.283       .  S
C197        O210   1.274       .  A
C197        O202   1.282       .  A
C197       C1075   1.486       .  S
C198        O225   1.276       .  A
C198       C1056   1.474       .  S
Mg199       O206   2.132       .  S
Mg199       O207   2.165   1_655  S
Mg199       O200   2.352       .  S
Mg199       O201   2.300       .  S
Mg199       O228   2.279       .  S
O201        C205   1.271   1_655  A
O202       Mg209   2.363       .  S
O203        C222   1.272       .  A
O204        C224   1.272       .  A
O204       Mg220   2.274   1_655  S
O206       Mg220   2.153   1_645  S
O206        C217   1.238       .  S
O207       Mg226   2.154       .  S
O208       Mg220   2.294   1_545  S
Mg209       O225   2.285       .  S
O210       Mg226   2.282       .  S
H211        C216   1.081       .  S
O212       Mg220   2.141   1_545  S
O212        C215   1.240   1_545  S
H213        C215   1.081       .  S
H214        C217   1.081       .  S
O219       Mg226   2.289       .  S
C222        O227   1.282   1_545  A
C222       C1040   1.478   1_545  S
O223        C224   1.278   1_455  A
C224       C1091   1.480       .  S
N229        C233   1.370       .  A
N229        C230   1.361       .  A
C230       C1139   1.469       .  S
C230        C231   1.381       .  A
C231        H234   1.083       .  S
C231        C232   1.357       .  A
C232        H235   1.083       .  S
C232        C233   1.381       .  A
C233       C1043   1.476       .  S
N236        C240   1.373       .  A
N236        C237   1.362       .  A
C237       C1008   1.472       .  S
C237        C238   1.380       .  A
C238        H241   1.082       .  S
C238        C239   1.359       .  A
C239        H242   1.082       .  S
C239        C240   1.384       .  A
C240       C1072   1.489       .  S
N243        C247   1.371       .  A
N243        C244   1.360       .  A
C244       C1347   1.473       .  S
C244        C245   1.380       .  A
C245        H248   1.082       .  S
C245        C246   1.361       .  A
C246        H249   1.082       .  S
C246        C247   1.385       .  A
C247       C1024   1.492       .  S
O250       Mg252   2.137       .  S
O250       Mg258   2.138       .  S
O250        C285   1.238       .  S
C251        O264   1.239       .  S
C251        O288   1.272       .  A
C251        H290   1.081       .  S
Mg252       O281   2.152   1_554  S
Mg252       O296   2.376   1_554  S
Mg252       O292   2.269   1_554  S
Mg252       O263   2.308       .  S
O253       Mg295   2.142       .  S
O253       Mg278   2.130       .  S
O253        C274   1.238       .  S
O254        C285   1.272       .  A
O254       Mg278   2.302       .  S
C255        O257   1.274       .  A
C255        O269   1.283   1_556  A
C255        C928   1.487       .  S
O256        C284   1.271   1_554  A
O256       Mg258   2.296       .  S
O257       Mg289   2.280       .  S
Mg258       O264   2.128       .  S
Mg258       O272   2.229       .  S
Mg258       O260   2.269       .  S
C259        O297   1.277       .  A
C259        O265   1.276       .  A
C259        C912   1.477       .  S
O260        C267   1.270       .  A
H261        C274   1.081       .  S
C262        O276   1.240       .  S
C262        O277   1.273       .  A
C262        H287   1.081       .  S
O263        C286   1.273       .  A
O264       Mg278   2.159       .  S
O265       Mg295   2.296       .  S
C266        O279   1.275       .  A
C266        O271   1.279       .  A
C266        C960   1.485       .  S
C267        O294   1.275       .  A
C267        C944   1.474       .  S
Mg268       O275   2.145       .  S
Mg268       O276   2.158       .  S
Mg268       O269   2.368       .  S
Mg268       O270   2.302       .  S
Mg268       O297   2.294       .  S
O270        C274   1.272       .  A
O271       Mg278   2.336       .  S
O272        C291   1.268   1_554  A
O273        C293   1.279       .  A
O273       Mg289   2.321       .  S
O275       Mg289   2.141   1_554  S
O275        C286   1.238       .  S
O276       Mg295   2.154       .  S
O277       Mg289   2.301   1_554  S
Mg278       O294   2.293       .  S
O279       Mg295   2.288       .  S
H280        C285   1.081       .  S
O281       Mg289   2.149       .  S
O281        C284   1.238       .  S
H282        C284   1.081       .  S
H283        C286   1.081       .  S
O288       Mg295   2.293       .  S
C291        O296   1.282       .  A
C291        C995   1.483       .  S
O292        C293   1.275       .  A
C293        C976   1.475       .  S
N298        C302   1.362       .  A
N298        C299   1.361       .  A
N298        C597   1.448       .  S
C299        C899   1.474       .  S
C299        C300   1.382       .  A
C300        H303   1.083       .  S
C300        C301   1.364       .  A
C301        H304   1.083       .  S
C301        C302   1.381       .  A
C302        C992   1.471       .  S
N305        C309   1.364       .  A
N305        C306   1.358       .  A
C306        C880   1.467       .  S
C306        C307   1.379       .  A
C307        H310   1.083       .  S
C307        C308   1.361       .  A
C308        H311   1.083       .  S
C308        C309   1.384       .  A
C309        C963   1.473       .  S
N312        C316   1.373       .  A
N312        C313   1.362       .  A
C313        C864   1.472       .  S
C313        C314   1.380       .  A
C314        H317   1.083       .  S
C314        C315   1.358       .  A
C315        H318   1.083       .  S
C315        C316   1.382       .  A
C316        C931   1.485       .  S
O319       Mg321   2.149       .  S
O319       Mg327   2.137       .  S
O319        C354   1.238       .  S
C320        O333   1.239       .  S
C320        O357   1.273       .  A
C320        H359   1.081       .  S
Mg321       O350   2.155       .  S
Mg321       O365   2.352       .  S
Mg321       O361   2.294       .  S
Mg321       O332   2.301       .  S
O322       Mg364   2.149   1_455  S
O322       Mg347   2.133       .  S
O322        C343   1.238       .  S
O323        C354   1.273   1_556  A
O323       Mg347   2.311       .  S
C324        O326   1.274       .  A
C324        O338   1.283       .  A
C324        C835   1.490   1_455  S
O325        C353   1.273       .  A
O325       Mg327   2.304       .  S
O326       Mg358   2.275       .  S
Mg327       O333   2.157       .  S
Mg327       O341   2.275       .  S
Mg327       O329   2.300   1_554  S
C328        O366   1.277       .  A
C328        O334   1.275       .  A
C328        C867   1.476       .  S
O329        C336   1.275       .  A
H330        C343   1.081       .  S
C331        O345   1.240   1_655  S
C331        O346   1.273   1_655  A
C331        H356   1.081       .  S
O332        C355   1.271       .  A
O333       Mg347   2.160   1_554  S
O334       Mg364   2.306       .  S
C335        O348   1.273       .  A
C335        O340   1.282   1_655  A
C335        C819   1.485       .  S
C336        O363   1.276       .  A
C336       C1267   1.477       .  S
Mg337       O344   2.133       .  S
Mg337       O345   2.162       .  S
Mg337       O338   2.364       .  S
Mg337       O339   2.297   1_554  S
Mg337       O366   2.284   1_454  S
O339        C343   1.271       .  A
O340       Mg347   2.361       .  S
O341        C360   1.273       .  A
O342        C362   1.277       .  A
O342       Mg358   2.310       .  S
O344       Mg358   2.136       .  S
O344        C355   1.237       .  S
O345       Mg364   2.151   1_454  S
O346       Mg358   2.300       .  S
Mg347       O363   2.289       .  S
O348       Mg364   2.275       .  S
H349        C354   1.081       .  S
O350       Mg358   2.152       .  S
O350        C353   1.240       .  S
H351        C353   1.081       .  S
H352        C355   1.081       .  S
O357       Mg364   2.301   1_454  S
C360        O365   1.280       .  A
C360        C848   1.488       .  S
O361        C362   1.276       .  A
C362       C1104   1.479       .  S
N367        C371   1.368       .  A
N367        C368   1.359       .  A
C368        C915   1.469       .  S
C368        C369   1.378       .  A
C369        H372   1.083       .  S
C369        C370   1.359       .  A
C370        H373   1.083       .  S
C370        C371   1.384       .  A
C371        C832   1.478       .  S
N374        C378   1.363       .  A
N374        C375   1.361       .  A
C375       C1171   1.475       .  S
C375        C376   1.380       .  A
C376        H379   1.082       .  S
C376        C377   1.365       .  A
C377        H380   1.083       .  S
C377        C378   1.384       .  A
C378        C851   1.478       .  S
N381        C385   1.371       .  A
N381        C382   1.361       .  A
C382       C1312   1.471       .  S
C382        C383   1.380       .  A
C383        H386   1.083       .  S
C383        C384   1.359       .  A
C384        H387   1.083       .  S
C384        C385   1.385       .  A
C385        C816   1.486       .  S
O388       Mg390   2.128       .  S
O388       Mg396   2.143       .  S
O388        C423   1.238       .  S
C389        O402   1.240       .  S
C389        O426   1.273       .  A
C389        H428   1.081       .  S
Mg390       O419   2.150       .  S
Mg390       O434   2.351       .  S
Mg390       O430   2.287   1_554  S
Mg390       O401   2.309   1_545  S
O391       Mg433   2.134       .  S
O391       Mg416   2.141       .  S
O391        C412   1.239   1_545  S
O392        C423   1.272       .  A
O392       Mg416   2.303       .  S
C393        O395   1.270       .  A
C393        O407   1.285   1_556  A
C393        C755   1.491       .  S
O394        C422   1.271       .  A
O394       Mg396   2.292       .  S
O395       Mg427   2.237   1_565  S
Mg396       O402   2.155       .  S
Mg396       O410   2.296       .  S
Mg396       O398   2.279       .  S
C397        O435   1.277       .  A
C397        O403   1.274       .  A
C397       C1235   1.475       .  S
O398        C405   1.274       .  A
H399        C412   1.081       .  S
C400        O414   1.239       .  S
C400        O415   1.273       .  A
C400        H425   1.081       .  S
O401        C424   1.273       .  A
O402       Mg416   2.163       .  S
O403       Mg433   2.280   1_565  S
C404        O417   1.274       .  A
C404        O409   1.282       .  A
C404        C803   1.492       .  S
C405        O432   1.276       .  A
C405        C883   1.471       .  S
Mg406       O413   2.143       .  S
Mg406       O414   2.157   1_565  S
Mg406       O407   2.400       .  S
Mg406       O408   2.314       .  S
Mg406       O435   2.302       .  S
O408        C412   1.274       .  A
O409       Mg416   2.371       .  S
O410        C429   1.276       .  A
O411        C431   1.274       .  A
O411       Mg427   2.291   1_565  S
O413       Mg427   2.128   1_564  S
O413        C424   1.239       .  S
O414       Mg433   2.147       .  S
O415       Mg427   2.300   1_554  S
Mg416       O432   2.286       .  S
O417       Mg433   2.278       .  S
H418        C423   1.081       .  S
O419       Mg427   2.134   1_554  S
O419        C422   1.238       .  S
H420        C422   1.081   1_556  S
H421        C424   1.081       .  S
O426       Mg433   2.299       .  S
C429        O434   1.281       .  A
C429        C784   1.492   1_554  S
O430        C431   1.274   1_545  A
C431        C771   1.474       .  S
N436        C440   1.368       .  A
N436        C437   1.360       .  A
C437        C739   1.467       .  S
C437        C438   1.378       .  A
C438        H441   1.083       .  S
C438        C439   1.360       .  A
C439        H442   1.083       .  S
C439        C440   1.384       .  A
C440        C787   1.477       .  S
N443        C447   1.371       .  A
N443        C444   1.361       .  A
C444        C947   1.471       .  S
C444        C445   1.379       .  A
C445        H448   1.083       .  S
C445        C446   1.357       .  A
C446        H449   1.083       .  S
C446        C447   1.383       .  A
C447        C800   1.479       .  S
N450        C454   1.363       .  A
N450        C451   1.360       .  A
C451       C1280   1.472       .  S
C451        C452   1.379       .  A
C452        H455   1.082       .  S
C452        C453   1.365       .  A
C453        H456   1.083       .  S
C453        C454   1.385       .  A
C454        C752   1.480       .  S
O457       Mg459   2.133       .  S
O457       Mg465   2.130       .  S
O457        C492   1.237       .  S
C458        O471   1.239       .  S
C458        O495   1.272       .  A
C458        H497   1.081       .  S
Mg459       O488   2.150       .  S
Mg459       O503   2.354       .  S
Mg459       O499   2.283       .  S
Mg459       O470   2.306       .  S
O460       Mg502   2.142       .  S
O460       Mg485   2.147       .  S
O460        C481   1.239       .  S
O461        C492   1.271       .  A
O461       Mg485   2.301       .  S
C462        O464   1.271       .  A
C462        O476   1.284       .  A
C462        C704   1.489       .  S
O463        C491   1.273       .  A
O463       Mg465   2.299       .  S
O464       Mg496   2.244       .  S
Mg465       O471   2.141       .  S
Mg465       O479   2.271       .  S
Mg465       O467   2.289       .  S
C466        O504   1.276       .  A
C466        O472   1.273       .  A
C466        C691   1.473       .  S
O467        C474   1.275       .  A
H468        C481   1.081       .  S
C469        O483   1.238       .  S
C469        O484   1.272       .  A
C469        H494   1.081       .  S
O470        C493   1.273       .  A
O471       Mg485   2.158       .  S
O472       Mg502   2.280       .  S
C473        O486   1.274       .  A
C473        O478   1.281       .  A
C473        C675   1.489       .  S
C474        O501   1.277       .  A
C474        C896   1.477       .  S
Mg475       O482   2.145       .  S
Mg475       O483   2.158       .  S
Mg475       O476   2.387       .  S
Mg475       O477   2.314       .  S
Mg475       O504   2.294       .  S
O477        C481   1.274       .  A
O478       Mg485   2.354       .  S
O479        C498   1.273       .  A
O480        C500   1.275       .  A
O480       Mg496   2.307       .  S
O482       Mg496   2.136       .  S
O482        C493   1.239       .  S
O483       Mg502   2.156       .  S
O484       Mg496   2.304       .  S
Mg485       O501   2.305       .  S
O486       Mg502   2.278       .  S
H487        C492   1.081       .  S
O488       Mg496   2.135       .  S
O488        C491   1.240       .  S
H489        C491   1.081       .  S
H490        C493   1.081       .  S
O495       Mg502   2.296       .  S
C498        O503   1.281       .  A
C498        C723   1.487       .  S
O499        C500   1.275       .  A
C500       C1120   1.478       .  S
N505        C509   1.361       .  A
N505        C506   1.356       .  A
C506        C656   1.468       .  S
C506        C507   1.378       .  A
C507        H510   1.083       .  S
C507        C508   1.370       .  A
C508        H511   1.083       .  S
C508        C509   1.387       .  A
C509        C707   1.478       .  S
N512        C516   1.367       .  A
N512        C513   1.360       .  A
C513        C979   1.468       .  S
C513        C514   1.380       .  A
C514        H517   1.083       .  S
C514        C515   1.359       .  A
C515        H518   1.083       .  S
C515        C516   1.383       .  A
C516        C672   1.475       .  S
N519        C523   1.364       .  A
N519        C520   1.361       .  A
C520       C1200   1.470       .  S
C520        C521   1.379       .  A
C521        H524   1.083       .  S
C521        C522   1.366       .  A
C522        H525   1.083       .  S
C522        C523   1.383       .  A
C523        C720   1.478       .  S
O526       Mg528   2.159       .  S
O526       Mg534   2.150       .  S
O526        C561   1.240       .  S
C527        O540   1.239       .  S
C527        O564   1.274       .  A
C527        H566   1.081       .  S
Mg528       O557   2.133       .  S
Mg528       O572   2.339       .  S
Mg528       O568   2.325       .  S
Mg528       O539   2.314       .  S
O529       Mg571   2.136       .  S
O529       Mg554   2.155       .  S
O529        C550   1.237       .  S
O530        C561   1.275       .  A
O530       Mg554   2.313       .  S
C531        O533   1.264       .  A
C531        O545   1.281       .  A
C531        C659   1.469       .  S
O532        C560   1.268       .  A
O532       Mg534   2.289       .  S
O533       Mg565   2.184   1_565  S
Mg534       O540   2.134       .  S
Mg534       O548   2.233       .  S
Mg534       O536   2.319       .  S
C535        O573   1.278       .  A
C535        O541   1.275   1_565  A
C535        C640   1.484       .  S
O536        C543   1.275       .  A
H537        C550   1.081       .  S
C538        O552   1.238       .  S
C538        O553   1.272       .  A
C538        H563   1.081       .  S
O539        C562   1.274   1_545  A
O540       Mg554   2.123       .  S
O541       Mg571   2.309       .  S
C542        O555   1.267       .  A
C542        O547   1.275       .  A
C542       C1011   1.461       .  S
C543        O570   1.274       .  A
C543        C624   1.481       .  S
Mg544       O551   2.162   1_565  S
Mg544       O552   2.146   1_565  S
Mg544       O545   2.361       .  S
Mg544       O546   2.312   1_565  S
Mg544       O573   2.313       .  S
O546        C550   1.272       .  A
O547       Mg554   2.313       .  S
O548        C567   1.271       .  A
O549        C569   1.273       .  A
O549       Mg565   2.301       .  S
O551       Mg565   2.142       .  S
O551        C562   1.239   1_545  S
O552       Mg571   2.131       .  S
O553       Mg565   2.295       .  S
Mg554       O570   2.292       .  S
O555       Mg571   2.248       .  S
H556        C561   1.081       .  S
O557       Mg565   2.108       .  S
O557        C560   1.235       .  S
H558        C560   1.081       .  S
H559        C562   1.081       .  S
O564       Mg571   2.315       .  S
C567        O572   1.280       .  A
C567        C736   1.472       .  S
O568        C569   1.277       .  A
C569        C608   1.485   1_545  S
N574        C578   1.366       .  A
N574        C575   1.358       .  A
C575        C688   1.471       .  S
C575        C576   1.382       .  A
C576        H579   1.082       .  S
C576        C577   1.365       .  A
C577        H580   1.083       .  S
C577        C578   1.380       .  A
C578        C643   1.476       .  S
N581        C585   1.362       .  A
N581        C582   1.359       .  A
N581        C595   1.445       .  S
C582       C1059   1.473       .  S
C582        C583   1.383       .  A
C583        H586   1.082       .  S
C583        C584   1.366       .  A
C584        H587   1.083       .  S
C584        C585   1.381       .  A
C585        C627   1.473       .  S
N588        C592   1.366       .  A
N588        C589   1.362       .  A
C589        C768   1.473       .  S
C589        C590   1.380       .  A
C590        H593   1.083       .  S
C590        C591   1.365       .  A
C591        H594   1.083       .  S
C591        C592   1.383       .  A
C592        C611   1.480       .  S
C595        N596   1.358       .  A
C595        N600   1.363       .  A
N596        C597   1.362       .  A
C597        N598   1.364       .  A
N598        C599   1.368       .  A
C599        N600   1.360       .  A
C601        C606   1.386       .  A
C601        C602   1.405       .  A
C601        S607   1.707       .  A
C602        H613   1.083       .  S
C602        C603   1.405       .  A
C603        C612   1.378       .  A
C603        C604   1.384       .  A
C604        C605   1.409       .  A
C604        S610   1.709       .  A
C605        H614   1.083       .  S
C605        C606   1.408       .  A
C606        C609   1.383       .  A
S607        C608   1.726       .  A
C608        C609   1.392       .  A
C609        H615   1.083   1_565  S
S610        C611   1.729       .  A
C611        C612   1.393       .  A
C612        H616   1.083       .  S
C617        C622   1.386       .  A
C617        C618   1.403       .  A
C617        S623   1.711       .  A
C618        H629   1.083       .  S
C618        C619   1.405       .  A
C619        C628   1.372       .  A
C619        C620   1.385       .  A
C620        C621   1.405       .  A
C620        S626   1.711       .  A
C621        H630   1.083       .  S
C621        C622   1.406       .  A
C622        C625   1.376       .  A
S623        C624   1.724       .  A
C624        C625   1.390       .  A
C625        H631   1.083       .  S
S626        C627   1.726       .  A
C627        C628   1.391       .  A
C628        H632   1.084       .  S
C633        C638   1.386       .  A
C633        C634   1.405       .  A
C633        S639   1.715       .  A
C634        H645   1.083       .  S
C634        C635   1.407       .  A
C635        C644   1.374       .  A
C635        C636   1.384       .  A
C636        C637   1.406       .  A
C636        S642   1.712       .  A
C637        H646   1.083       .  S
C637        C638   1.407       .  A
C638        C641   1.375       .  A
S639        C640   1.725       .  A
C640        C641   1.391       .  A
C641        H647   1.083       .  S
S642        C643   1.727       .  A
C643        C644   1.392       .  A
C644        H648   1.084       .  S
C649        C654   1.387       .  A
C649        C650   1.403       .  A
C649        S655   1.697       .  A
C650        H661   1.083       .  S
C650        C651   1.401       .  A
C651        C660   1.376       .  A
C651        C652   1.388       .  A
C652        C653   1.397       .  A
C652        S658   1.691       .  A
C653        H662   1.083       .  S
C653        C654   1.395       .  A
C654        C657   1.370       .  A
S655        C656   1.725       .  A
C656        C657   1.380       .  A
C657        H663   1.083       .  S
S658        C659   1.725       .  A
C659        C660   1.385       .  A
C660        H664   1.083       .  S
C665        C670   1.383       .  A
C665        C666   1.406       .  A
C665        S671   1.711       .  A
C666        H677   1.083       .  S
C666        C667   1.407       .  A
C667        C676   1.376       .  A
C667        C668   1.385       .  A
C668        C669   1.406       .  A
C668        S674   1.716       .  A
C669        H678   1.083       .  S
C669        C670   1.408       .  A
C670        C673   1.375       .  A
S671        C672   1.728       .  A
C672        C673   1.396       .  A
C673        H679   1.084       .  S
S674        C675   1.726       .  A
C675        C676   1.393       .  A
C676        H680   1.083       .  S
C681        C686   1.386       .  A
C681        C682   1.399       .  A
C681        S687   1.704       .  A
C682        H693   1.083       .  S
C682        C683   1.401       .  A
C683        C692   1.365       .  A
C683        C684   1.386       .  A
C684        C685   1.402       .  A
C684        S690   1.714       .  A
C685        H694   1.083       .  S
C685        C686   1.406       .  A
C686        C689   1.370       .  A
S687        C688   1.724       .  A
C688        C689   1.389       .  A
C689        H695   1.084       .  S
S690        C691   1.723       .  A
C691        C692   1.387       .  A
C692        H696   1.083       .  S
C697        C702   1.386       .  A
C697        C698   1.402       .  A
C697        S703   1.701       .  A
C698        H709   1.083       .  S
C698        C699   1.401       .  A
C699        C708   1.376       .  A
C699        C700   1.384       .  A
C700        C701   1.412       .  A
C700        S706   1.709       .  A
C701        H710   1.083       .  S
C701        C702   1.410       .  A
C702        C705   1.386       .  A
S703        C704   1.727       .  A
C704        C705   1.394       .  A
C705        H711   1.083       .  S
S706        C707   1.731       .  A
C707        C708   1.390       .  A
C708        H712   1.083       .  S
C713        C718   1.384       .  A
C713        C714   1.405       .  A
C713        S719   1.711       .  A
C714        H725   1.083       .  S
C714        C715   1.406       .  A
C715        C724   1.374       .  A
C715        C716   1.385       .  A
C716        C717   1.407       .  A
C716        S722   1.717       .  A
C717        H726   1.083       .  S
C717        C718   1.410       .  A
C718        C721   1.377       .  A
S719        C720   1.727       .  A
C720        C721   1.395       .  A
C721        H727   1.084       .  S
S722        C723   1.727       .  A
C723        C724   1.392       .  A
C724        H728   1.083       .  S
C729        C734   1.386       .  A
C729        C730   1.401       .  A
C729        S735   1.712       .  A
C730        H741   1.083       .  S
C730        C731   1.405       .  A
C731        C740   1.369       .  A
C731        C732   1.386       .  A
C732        C733   1.399       .  A
C732        S738   1.704       .  A
C733        H742   1.083       .  S
C733        C734   1.401       .  A
C734        C737   1.366       .  A
S735        C736   1.722       .  A
C736        C737   1.387       .  A
C737        H743   1.083       .  S
S738        C739   1.723       .  A
C739        C740   1.388       .  A
C740        H744   1.084       .  S
C745        C750   1.384       .  A
C745        C746   1.413       .  A
C745        S751   1.712       .  A
C746        H757   1.083       .  S
C746        C747   1.411       .  A
C747        C756   1.388       .  A
C747        C748   1.386       .  A
C748        C749   1.402       .  A
C748        S754   1.700       .  A
C749        H758   1.083       .  S
C749        C750   1.401       .  A
C750        C753   1.375       .  A
S751        C752   1.730       .  A
C752        C753   1.391       .  A
C753        H759   1.084       .  S
S754        C755   1.728       .  A
C755        C756   1.395       .  A
C756        H760   1.082       .  S
C761        C766   1.386       .  A
C761        C762   1.399       .  A
C761        S767   1.705       .  A
C762        H773   1.083       .  S
C762        C763   1.401       .  A
C763        C772   1.367       .  A
C763        C764   1.386       .  A
C764        C765   1.403       .  A
C764        S770   1.714       .  A
C765        H774   1.083       .  S
C765        C766   1.406       .  A
C766        C769   1.371       .  A
S767        C768   1.724       .  A
C768        C769   1.389       .  A
C769        H775   1.084       .  S
S770        C771   1.723       .  A
C771        C772   1.387       .  A
C772        H776   1.083       .  S
C777        C782   1.385       .  A
C777        C778   1.407       .  A
C777        S783   1.715       .  A
C778        H789   1.083       .  S
C778        C779   1.408       .  A
C779        C788   1.377       .  A
C779        C780   1.383       .  A
C780        C781   1.408       .  A
C780        S786   1.713       .  A
C781        H790   1.083       .  S
C781        C782   1.409       .  A
C782        C785   1.380       .  A
S783        C784   1.727       .  A
C784        C785   1.394       .  A
C785        H791   1.083   1_556  S
S786        C787   1.729       .  A
C787        C788   1.397       .  A
C788        H792   1.084       .  S
C793        C798   1.383       .  A
C793        C794   1.412       .  A
C793        S799   1.709       .  A
C794        H805   1.083       .  S
C794        C795   1.410       .  A
C795        C804   1.386       .  A
C795        C796   1.386       .  A
C796        C797   1.406       .  A
C796        S802   1.708       .  A
C797        H806   1.083       .  S
C797        C798   1.406       .  A
C798        C801   1.381       .  A
S799        C800   1.736       .  A
C800        C801   1.394       .  A
C801        H807   1.083       .  S
S802        C803   1.727       .  A
C803        C804   1.395       .  A
C804        H808   1.083       .  S
C809        C814   1.384       .  A
C809        C810   1.408       .  A
C809        S815   1.717       .  A
C810        H821   1.083       .  S
C810        C811   1.410       .  A
C811        C820   1.378       .  A
C811        C812   1.386       .  A
C812        C813   1.404       .  A
C812        S818   1.716       .  A
C813        H822   1.083       .  S
C813        C814   1.407       .  A
C814        C817   1.372       .  A
S815        C816   1.728       .  A
C816        C817   1.395       .  A
C817        H823   1.084       .  S
S818        C819   1.724       .  A
C819        C820   1.392       .  A
C820        H824   1.083       .  S
C825        C830   1.383       .  A
C825        C826   1.407       .  A
C825        S831   1.712       .  A
C826        H837   1.083       .  S
C826        C827   1.408       .  A
C827        C836   1.377       .  A
C827        C828   1.385       .  A
C828        C829   1.407       .  A
C828        S834   1.718       .  A
C829        H838   1.083       .  S
C829        C830   1.409       .  A
C830        C833   1.376       .  A
S831        C832   1.728       .  A
C832        C833   1.398       .  A
C833        H839   1.084       .  S
S834        C835   1.727       .  A
C835        C836   1.393       .  A
C836        H840   1.083   1_655  S
C841        C846   1.385       .  A
C841        C842   1.407       .  A
C841        S847   1.717       .  A
C842        H853   1.083       .  S
C842        C843   1.409       .  A
C843        C852   1.376       .  A
C843        C844   1.384       .  A
C844        C845   1.405       .  A
C844        S850   1.709       .  A
C845        H854   1.083       .  S
C845        C846   1.406       .  A
C846        C849   1.375       .  A
S847        C848   1.727       .  A
C848        C849   1.392       .  A
C849        H855   1.083       .  S
S850        C851   1.728       .  A
C851        C852   1.394       .  A
C852        H856   1.084       .  S
C857        C862   1.385       .  A
C857        C858   1.403       .  A
C857        S863   1.704       .  A
C858        H869   1.083       .  S
C858        C859   1.403       .  A
C859        C868   1.373       .  A
C859        C860   1.386       .  A
C860        C861   1.403       .  A
C860        S866   1.710       .  A
C861        H870   1.083       .  S
C861        C862   1.405       .  A
C862        C865   1.372       .  A
S863        C864   1.726       .  A
C864        C865   1.390       .  A
C865        H871   1.084       .  S
S866        C867   1.724       .  A
C867        C868   1.388       .  A
C868        H872   1.083       .  S
C873        C878   1.387       .  A
C873        C874   1.398       .  A
C873        S879   1.703       .  A
C874        H885   1.083       .  S
C874        C875   1.400       .  A
C875        C884   1.364       .  A
C875        C876   1.386       .  A
C876        C877   1.401       .  A
C876        S882   1.712       .  A
C877        H886   1.083       .  S
C877        C878   1.405       .  A
C878        C881   1.369       .  A
S879        C880   1.723       .  A
C880        C881   1.387       .  A
C881        H887   1.084       .  S
S882        C883   1.722       .  A
C883        C884   1.386       .  A
C884        H888   1.083       .  S
C889        C894   1.386       .  A
C889        C890   1.404       .  A
C889        S895   1.716       .  A
C890        H901   1.083       .  S
C890        C891   1.407       .  A
C891        C900   1.372       .  A
C891        C892   1.386       .  A
C892        C893   1.399       .  A
C892        S898   1.704       .  A
C893        H902   1.083       .  S
C893        C894   1.401       .  A
C894        C897   1.367       .  A
S895        C896   1.724       .  A
C896        C897   1.388       .  A
C897        H903   1.083       .  S
S898        C899   1.725       .  A
C899        C900   1.390       .  A
C900        H904   1.084       .  S
C905        C910   1.386       .  A
C905        C906   1.401       .  A
C905        S911   1.711       .  A
C906        H917   1.083       .  S
C906        C907   1.404       .  A
C907        C916   1.370       .  A
C907        C908   1.386       .  A
C908        C909   1.401       .  A
C908        S914   1.704       .  A
C909        H918   1.083       .  S
C909        C910   1.403       .  A
C910        C913   1.370       .  A
S911        C912   1.723       .  A
C912        C913   1.389       .  A
C913        H919   1.083       .  S
S914        C915   1.724       .  A
C915        C916   1.388       .  A
C916        H920   1.084       .  S
C921        C926   1.386       .  A
C921        C922   1.409       .  A
C921        S927   1.712       .  A
C922        H933   1.083       .  S
C922        C923   1.408       .  A
C923        C932   1.383       .  A
C923        C924   1.384       .  A
C924        C925   1.408       .  A
C924        S930   1.706       .  A
C925        H934   1.083       .  S
C925        C926   1.407       .  A
C926        C929   1.383       .  A
S927        C928   1.727       .  A
C928        C929   1.391       .  A
C929        H935   1.083       .  S
S930        C931   1.733       .  A
C931        C932   1.394       .  A
C932        H936   1.083       .  S
C937        C942   1.387       .  A
C937        C938   1.399       .  A
C937        S943   1.702       .  A
C938        H949   1.083       .  S
C938        C939   1.401       .  A
C939        C948   1.369       .  A
C939        C940   1.386       .  A
C940        C941   1.405       .  A
C940        S946   1.705       .  A
C941        H950   1.083       .  S
C941        C942   1.404       .  A
C942        C945   1.376       .  A
S943        C944   1.724       .  A
C944        C945   1.388       .  A
C945        H951   1.083       .  S
S946        C947   1.724       .  A
C947        C948   1.389       .  A
C948        H952   1.084       .  S
C953        C958   1.386       .  A
C953        C954   1.404       .  A
C953        S959   1.713       .  A
C954        H965   1.083       .  S
C954        C955   1.407       .  A
C955        C964   1.374       .  A
C955        C956   1.383       .  A
C956        C957   1.407       .  A
C956        S962   1.712       .  A
C957        H966   1.083       .  S
C957        C958   1.408       .  A
C958        C961   1.377       .  A
S959        C960   1.725       .  A
C960        C961   1.392       .  A
C961        H967   1.083       .  S
S962        C963   1.727       .  A
C963        C964   1.394       .  A
C964        H968   1.084       .  S
C969        C974   1.386       .  A
C969        C970   1.402       .  A
C969        S975   1.709       .  A
C970        H981   1.083       .  S
C970        C971   1.404       .  A
C971        C980   1.371       .  A
C971        C972   1.385       .  A
C972        C973   1.402       .  A
C972        S978   1.705       .  A
C973        H982   1.083       .  S
C973        C974   1.403       .  A
C974        C977   1.371       .  A
S975        C976   1.724       .  A
C976        C977   1.388       .  A
C977        H983   1.083       .  S
S978        C979   1.726       .  A
C979        C980   1.390       .  A
C980        H984   1.084       .  S
C985        C990   1.385       .  A
C985        C986   1.409       .  A
C985        S991   1.706       .  A
C986        H997   1.083       .  S
C986        C987   1.408       .  A
C987        C996   1.384       .  A
C987        C988   1.387       .  A
C988        C989   1.401       .  A
C988        S994   1.698       .  A
C989        H998   1.083       .  S
C989        C990   1.400       .  A
C990        C993   1.374       .  A
S991        C992   1.729       .  A
C992        C993   1.388       .  A
C993        H999   1.083       .  S
S994        C995   1.726       .  A
C995        C996   1.392       .  A
C996       H1000   1.083       .  S
C1001      C1006   1.386       .  A
C1001      C1002   1.399       .  A
C1001      S1007   1.700       .  A
C1002      H1013   1.083       .  S
C1002      C1003   1.399       .  A
C1003      C1012   1.366       .  A
C1003      C1004   1.387       .  A
C1004      C1005   1.400       .  A
C1004      S1010   1.707       .  A
C1005      H1014   1.083       .  S
C1005      C1006   1.402       .  A
C1006      C1009   1.368       .  A
S1007      C1008   1.725       .  A
C1008      C1009   1.388       .  A
C1009      H1015   1.084       .  S
S1010      C1011   1.721       .  A
C1011      C1012   1.383       .  A
C1012      H1016   1.083       .  S
C1017      C1022   1.383       .  A
C1017      C1018   1.410       .  A
C1017      S1023   1.720       .  A
C1018      H1029   1.083       .  S
C1018      C1019   1.411       .  A
C1019      C1028   1.379       .  A
C1019      C1020   1.386       .  A
C1020      C1021   1.404       .  A
C1020      S1026   1.714       .  A
C1021      H1030   1.083       .  S
C1021      C1022   1.406       .  A
C1022      C1025   1.371       .  A
S1023      C1024   1.729       .  A
C1024      C1025   1.395       .  A
C1025      H1031   1.083       .  S
S1026      C1027   1.723       .  A
C1027      C1028   1.393       .  A
C1028      H1032   1.083       .  S
C1033      C1038   1.387       .  A
C1033      C1034   1.407       .  A
C1033      S1039   1.710       .  A
C1034      H1045   1.083       .  S
C1034      C1035   1.407       .  A
C1035      C1044   1.380       .  A
C1035      C1036   1.385       .  A
C1036      C1037   1.404       .  A
C1036      S1042   1.702       .  A
C1037      H1046   1.083       .  S
C1037      C1038   1.403       .  A
C1038      C1041   1.378       .  A
S1039      C1040   1.726       .  A
C1040      C1041   1.387       .  A
C1041      H1047   1.083       .  S
S1042      C1043   1.729       .  A
C1043      C1044   1.392       .  A
C1044      H1048   1.083       .  S
C1049      C1054   1.386       .  A
C1049      C1050   1.402       .  A
C1049      S1055   1.712       .  A
C1050      H1061   1.083       .  S
C1050      C1051   1.405       .  A
C1051      C1060   1.370       .  A
C1051      C1052   1.386       .  A
C1052      C1053   1.400       .  A
C1052      S1058   1.704       .  A
C1053      H1062   1.083       .  S
C1053      C1054   1.401       .  A
C1054      C1057   1.368       .  A
S1055      C1056   1.723       .  A
C1056      C1057   1.387       .  A
C1057      H1063   1.083       .  S
S1058      C1059   1.725       .  A
C1059      C1060   1.388       .  A
C1060      H1064   1.084       .  S
C1065      C1070   1.385       .  A
C1065      C1066   1.408       .  A
C1065      S1071   1.703       .  A
C1066      H1077   1.083       .  S
C1066      C1067   1.406       .  A
C1067      C1076   1.383       .  A
C1067      C1068   1.386       .  A
C1068      C1069   1.409       .  A
C1068      S1074   1.711       .  A
C1069      H1078   1.083       .  S
C1069      C1070   1.407       .  A
C1070      C1073   1.384       .  A
S1071      C1072   1.734       .  A
C1072      C1073   1.393       .  A
C1073      H1079   1.083       .  S
S1074      C1075   1.726       .  A
C1075      C1076   1.391       .  A
C1076      H1080   1.083       .  S
C1081      C1086   1.385       .  A
C1081      C1082   1.408       .  A
C1081      S1087   1.708       .  A
C1082      H1093   1.083       .  S
C1082      C1083   1.407       .  A
C1083      C1092   1.381       .  A
C1083      C1084   1.387       .  A
C1084      C1085   1.400       .  A
C1084      S1090   1.700       .  A
C1085      H1094   1.083       .  S
C1085      C1086   1.400       .  A
C1086      C1089   1.371       .  A
S1087      C1088   1.726       .  A
C1088      C1089   1.389       .  A
C1089      H1095   1.084       .  S
S1090      C1091   1.725       .  A
C1091      C1092   1.391       .  A
C1092      H1096   1.083       .  S
C1097      C1102   1.386       .  A
C1097      C1098   1.404       .  A
C1097      S1103   1.714       .  A
C1098      H1109   1.083       .  S
C1098      C1099   1.407       .  A
C1099      C1108   1.373       .  A
C1099      C1100   1.385       .  A
C1100      C1101   1.403       .  A
C1100      S1106   1.706       .  A
C1101      H1110   1.083       .  S
C1101      C1102   1.404       .  A
C1102      C1105   1.372       .  A
S1103      C1104   1.724       .  A
C1104      C1105   1.389       .  A
C1105      H1111   1.083       .  S
S1106      C1107   1.728       .  A
C1107      C1108   1.391       .  A
C1108      H1112   1.084       .  S
C1113      C1118   1.386       .  A
C1113      C1114   1.403       .  A
C1113      S1119   1.709       .  A
C1114      H1125   1.083       .  S
C1114      C1115   1.404       .  A
C1115      C1124   1.373       .  A
C1115      C1116   1.385       .  A
C1116      C1117   1.405       .  A
C1116      S1122   1.705       .  A
C1117      H1126   1.083       .  S
C1117      C1118   1.404       .  A
C1118      C1121   1.375       .  A
S1119      C1120   1.724       .  A
C1120      C1121   1.389       .  A
C1121      H1127   1.083       .  S
S1122      C1123   1.730       .  A
C1123      C1124   1.390       .  A
C1124      H1128   1.084       .  S
C1129      C1134   1.387       .  A
C1129      C1130   1.399       .  A
C1129      S1135   1.703       .  A
C1130      H1141   1.083       .  S
C1130      C1131   1.401       .  A
C1131      C1140   1.369       .  A
C1131      C1132   1.387       .  A
C1132      C1133   1.401       .  A
C1132      S1138   1.700       .  A
C1133      H1142   1.083       .  S
C1133      C1134   1.401       .  A
C1134      C1137   1.371       .  A
S1135      C1136   1.721       .  A
C1136      C1137   1.384       .  A
C1137      H1143   1.083       .  S
S1138      C1139   1.725       .  A
C1139      C1140   1.386       .  A
C1140      H1144   1.084       .  S
C1145      C1150   1.386       .  A
C1145      C1146   1.406       .  A
C1145      S1151   1.708       .  A
C1146      H1157   1.083       .  S
C1146      C1147   1.406       .  A
C1147      C1156   1.381       .  A
C1147      C1148   1.382       .  A
C1148      C1149   1.412       .  A
C1148      S1154   1.711       .  A
C1149      H1158   1.083       .  S
C1149      C1150   1.411       .  A
C1150      C1153   1.387       .  A
S1151      C1152   1.727       .  A
C1152      C1153   1.395       .  A
C1153      H1159   1.083   1_655  S
S1154      C1155   1.734       .  A
C1155      C1156   1.395       .  A
C1156      H1160   1.083       .  S
C1161      C1166   1.387       .  A
C1161      C1162   1.398       .  A
C1161      S1167   1.696       .  A
C1162      H1173   1.083       .  S
C1162      C1163   1.397       .  A
C1163      C1172   1.368       .  A
C1163      C1164   1.386       .  A
C1164      C1165   1.405       .  A
C1164      S1170   1.704       .  A
C1165      H1174   1.083       .  S
C1165      C1166   1.404       .  A
C1166      C1169   1.378       .  A
S1167      C1168   1.725       .  A
C1168      C1169   1.388       .  A
C1169      H1175   1.083       .  S
S1170      C1171   1.727       .  A
C1171      C1172   1.385       .  A
C1172      H1176   1.083       .  S
C1177      C1182   1.386       .  A
C1177      C1178   1.404       .  A
C1177      S1183   1.706       .  A
C1178      H1189   1.083       .  S
C1178      C1179   1.404       .  A
C1179      C1188   1.377       .  A
C1179      C1180   1.383       .  A
C1180      C1181   1.412       .  A
C1180      S1186   1.712       .  A
C1181      H1190   1.083       .  S
C1181      C1182   1.411       .  A
C1182      C1185   1.387       .  A
S1183      C1184   1.725       .  A
C1184      C1185   1.394       .  A
C1185      H1191   1.083       .  S
S1186      C1187   1.731       .  A
C1187      C1188   1.393       .  A
C1188      H1192   1.083       .  S
C1193      C1198   1.386       .  A
C1193      C1194   1.398       .  A
C1193      S1199   1.707       .  A
C1194      H1205   1.083       .  S
C1194      C1195   1.401       .  A
C1195      C1204   1.363       .  A
C1195      C1196   1.386       .  A
C1196      C1197   1.401       .  A
C1196      S1202   1.714       .  A
C1197      H1206   1.083       .  S
C1197      C1198   1.405       .  A
C1198      C1201   1.367       .  A
S1199      C1200   1.722       .  A
C1200      C1201   1.388       .  A
C1201      H1207   1.084       .  S
S1202      C1203   1.722       .  A
C1203      C1204   1.387       .  A
C1204      H1208   1.083       .  S
C1209      C1214   1.387       .  A
C1209      C1210   1.407       .  A
C1209      S1215   1.712       .  A
C1210      H1221   1.083       .  S
C1210      C1211   1.407       .  A
C1211      C1220   1.380       .  A
C1211      C1212   1.384       .  A
C1212      C1213   1.407       .  A
C1212      S1218   1.705       .  A
C1213      H1222   1.083       .  S
C1213      C1214   1.406       .  A
C1214      C1217   1.379       .  A
S1215      C1216   1.723       .  A
C1216      C1217   1.389       .  A
C1217      H1223   1.083       .  S
S1218      C1219   1.730       .  A
C1219      C1220   1.393       .  A
C1220      H1224   1.083       .  S
C1225      C1230   1.386       .  A
C1225      C1226   1.398       .  A
C1225      S1231   1.702       .  A
C1226      H1237   1.083       .  S
C1226      C1227   1.401       .  A
C1227      C1236   1.365       .  A
C1227      C1228   1.386       .  A
C1228      C1229   1.403       .  A
C1228      S1234   1.716       .  A
C1229      H1238   1.083       .  S
C1229      C1230   1.407       .  A
C1230      C1233   1.371       .  A
S1231      C1232   1.725       .  A
C1232      C1233   1.389       .  A
C1233      H1239   1.084       .  S
S1234      C1235   1.723       .  A
C1235      C1236   1.387       .  A
C1236      H1240   1.084       .  S
C1241      C1246   1.386       .  A
C1241      C1242   1.398       .  A
C1241      S1247   1.705       .  A
C1242      H1253   1.083       .  S
C1242      C1243   1.401       .  A
C1243      C1252   1.365       .  A
C1243      C1244   1.387       .  A
C1244      C1245   1.400       .  A
C1244      S1250   1.710       .  A
C1245      H1254   1.083       .  S
C1245      C1246   1.403       .  A
C1246      C1249   1.366       .  A
S1247      C1248   1.725       .  A
C1248      C1249   1.389       .  A
C1249      H1255   1.083       .  S
S1250      C1251   1.722       .  A
C1251      C1252   1.386       .  A
C1252      H1256   1.083       .  S
C1257      C1262   1.386       .  A
C1257      C1258   1.402       .  A
C1257      S1263   1.704       .  A
C1258      H1269   1.083       .  S
C1258      C1259   1.403       .  A
C1259      C1268   1.370       .  A
C1259      C1260   1.386       .  A
C1260      C1261   1.402       .  A
C1260      S1266   1.712       .  A
C1261      H1270   1.083       .  S
C1261      C1262   1.405       .  A
C1262      C1265   1.371       .  A
S1263      C1264   1.727       .  A
C1264      C1265   1.389       .  A
C1265      H1271   1.084       .  S
S1266      C1267   1.723       .  A
C1267      C1268   1.389       .  A
C1268      H1272   1.083       .  S
C1273      C1278   1.386       .  A
C1273      C1274   1.397       .  A
C1273      S1279   1.706       .  A
C1274      H1285   1.083       .  S
C1274      C1275   1.400       .  A
C1275      C1284   1.362       .  A
C1275      C1276   1.385       .  A
C1276      C1277   1.405       .  A
C1276      S1282   1.719       .  A
C1277      H1286   1.083       .  S
C1277      C1278   1.408       .  A
C1278      C1281   1.370       .  A
S1279      C1280   1.722       .  A
C1280      C1281   1.390       .  A
C1281      H1287   1.083       .  S
S1282      C1283   1.725       .  A
C1283      C1284   1.388       .  A
C1284      H1288   1.083       .  S
C1289      C1294   1.384       .  A
C1289      C1290   1.406       .  A
C1289      S1295   1.711       .  A
C1290      H1301   1.083       .  S
C1290      C1291   1.407       .  A
C1291      C1300   1.376       .  A
C1291      C1292   1.386       .  A
C1292      C1293   1.403       .  A
C1292      S1298   1.711       .  A
C1293      H1302   1.083       .  S
C1293      C1294   1.405       .  A
C1294      C1297   1.372       .  A
S1295      C1296   1.727       .  A
C1296      C1297   1.390       .  A
C1297      H1303   1.084       .  S
S1298      C1299   1.723       .  A
C1299      C1300   1.391       .  A
C1300      H1304   1.083       .  S
C1305      C1310   1.386       .  A
C1305      C1306   1.404       .  A
C1305      S1311   1.706       .  A
C1306      H1317   1.083       .  S
C1306      C1307   1.405       .  A
C1307      C1316   1.372       .  A
C1307      C1308   1.387       .  A
C1308      C1309   1.399       .  A
C1308      S1314   1.707       .  A
C1309      H1318   1.083       .  S
C1309      C1310   1.401       .  A
C1310      C1313   1.368       .  A
S1311      C1312   1.725       .  A
C1312      C1313   1.387       .  A
C1313      H1319   1.084       .  S
S1314      C1315   1.719       .  A
C1315      C1316   1.387       .  A
C1316      H1320   1.083       .  S
C1321      C1326   1.384       .  A
C1321      C1322   1.410       .  A
C1321      S1327   1.710       .  A
C1322      H1333   1.083       .  S
C1322      C1323   1.409       .  A
C1323      C1332   1.384       .  A
C1323      C1324   1.386       .  A
C1324      C1325   1.405       .  A
C1324      S1330   1.706       .  A
C1325      H1334   1.083       .  S
C1325      C1326   1.404       .  A
C1326      C1329   1.377       .  A
S1327      C1328   1.729       .  A
C1328      C1329   1.392       .  A
C1329      H1335   1.083       .  S
S1330      C1331   1.727       .  A
C1331      C1332   1.392       .  A
C1332      H1336   1.083       .  S
C1337      C1342   1.387       .  A
C1337      C1338   1.401       .  A
C1337      S1343   1.707       .  A
C1338      H1349   1.083       .  S
C1338      C1339   1.403       .  A
C1339      C1348   1.369       .  A
C1339      C1340   1.386       .  A
C1340      C1341   1.401       .  A
C1340      S1346   1.702       .  A
C1341      H1350   1.083       .  S
C1341      C1342   1.401       .  A
C1342      C1345   1.370       .  A
S1343      C1344   1.722       .  A
C1344      C1345   1.384       .  A
C1345      H1351   1.083       .  S
S1346      C1347   1.725       .  A
C1347      C1348   1.389       .  A
C1348      H1352   1.084       .  S
C1353      C1358   1.384       .  A
C1353      C1354   1.407       .  A
C1353      S1359   1.712       .  A
C1354      H1365   1.083       .  S
C1354      C1355   1.408       .  A
C1355      C1364   1.378       .  A
C1355      C1356   1.386       .  A
C1356      C1357   1.406       .  A
C1356      S1362   1.715       .  A
C1357      H1366   1.083       .  S
C1357      C1358   1.408       .  A
C1358      C1361   1.377       .  A
S1359      C1360   1.729       .  A
C1360      C1361   1.394       .  A
C1361      H1367   1.084       .  S
S1362      C1363   1.726       .  A
C1363      C1364   1.393       .  A
C1364      H1368   1.083       .  S
