geometry optimzed in LAMMPS
_audit_creation_date              2020-11-30 
_audit_creation_method            'lammps2cif' 
_symmetry_space_group_name_H-M    'P1' 
_symmetry_Int_Tables_number       1 
_symmetry_cell_setting            triclinic 
loop_ 
_symmetry_equiv_pos_as_xyz 
  x,y,z 
_cell_length_a                    35.9217055 
_cell_length_b                    35.01077000076154 
_cell_length_c                    35.455576288429604 
_cell_angle_alpha                 89.79525199668413 
_cell_angle_beta                  89.75629210933391 
_cell_angle_gamma                 120.74885805196934 
loop_ 
_atom_site_label 
_atom_site_type_symbol 
_atom_site_fract_x 
_atom_site_fract_y 
_atom_site_fract_z 
_atom_site_charge 
O1          O  0.48219284  0.43945846  0.03814438    -0.71100
O2          O  0.55957143  0.50163197  0.46503029    -0.71300
O3          O  0.55860093  0.51545704  0.03845035    -0.71100
O4          O  0.48203057  0.42594820  0.46482220    -0.71100
O5          O  0.44971765  0.46413988  0.46574640    -0.71100
O6          O  0.52574896  0.55314740  0.03846073    -0.71100
O7          O  0.52726491  0.53987615  0.46551579    -0.71100
O8          O  0.44890283  0.47672036  0.03851880    -0.71200
V9          V  0.52010946  0.47877270  0.00030246     1.35200
V10         V  0.48895639  0.50096662  0.50312990     1.35200
C11         C  0.45241362  0.44492625  0.05109989     0.78200
C12         C  0.55706986  0.53423749  0.45299177     0.78200
C13         C  0.55478785  0.54678966  0.05160567     0.78100
C14         C  0.45278377  0.43252610  0.45230292     0.78100
O15         O  0.02446218  0.56008842  0.46442124    -0.71100
O16         O  0.02000437  0.47286333  0.03369813    -0.71300
O17         O  0.02654882  0.48465377  0.45812147    -0.71100
O18         O  0.01753859  0.54807042  0.03421176    -0.71100
O19         O  0.94724525  0.50833434  0.03716552    -0.71100
O20         O  0.95614765  0.44567299  0.45954566    -0.71100
O21         O  0.94965410  0.43319638  0.03475548    -0.71100
O22         O  0.95408061  0.52058407  0.46440907    -0.71200
V23         V  0.02474939  0.51864123  0.49878725     1.35200
V24         V  0.94873845  0.47232652  0.99789894     1.35200
C25         C  0.98872195  0.55380561  0.45239937     0.78200
C26         C  0.98568451  0.44035007  0.04694545     0.78200
C27         C  0.99154656  0.45327697  0.44516530     0.78100
C28         C  0.98238262  0.54079236  0.04886556     0.78100
O29         O  0.56563023  0.04922377  0.03750530    -0.71100
O30         O  0.48498123  0.04991334  0.46166783    -0.71300
O31         O  0.48884690  0.04531341  0.04051713    -0.71100
O32         O  0.56056215  0.05225878  0.45770114    -0.71100
O33         O  0.52686223  0.98003729  0.45895996    -0.71100
O34         O  0.45427363  0.97317642  0.03799677    -0.71100
O35         O  0.45051235  0.97768615  0.46195683    -0.71100
O36         O  0.53091473  0.97701019  0.03713153    -0.71200
V37         V  0.52584936  0.04716590  0.00106107     1.35200
V38         V  0.49079687  0.98030418  0.49798742     1.35200
C39         C  0.56136955  0.01319888  0.04976326     0.78200
C40         C  0.45416775  0.01340351  0.44973399     0.78200
C41         C  0.45844123  0.00813370  0.05229628     0.78100
C42         C  0.55620566  0.01649649  0.44516159     0.78100
C43         C  0.99281808  0.72853940  0.24674339    -0.01800
C44         C  0.00255044  0.27338738  0.25047219    -0.01800
C45         C  0.26682188  0.26609565  0.25040050    -0.01800
C46         C  0.27154264  0.99583452  0.24907937    -0.01800
C47         C  0.72980609  0.00167181  0.25008717    -0.01800
C48         C  0.72754209  0.72628793  0.25431312    -0.01800
C49         C  0.71013012  0.88893117  0.25753997     0.21100
C50         C  0.68466259  0.84257582  0.26087175    -0.38800
C51         C  0.70727751  0.81977824  0.26026161     0.20000
C52         C  0.75178728  0.84132120  0.25652816     0.22700
C53         C  0.77739034  0.88790013  0.25364809    -0.39300
C54         C  0.75470764  0.91082547  0.25430227     0.21500
N55         N  0.69614933  0.91781930  0.25645934    -0.32600
C56         C  0.73187533  0.95895365  0.25246305    -0.10100
C57         C  0.76922467  0.95566099  0.25131316    -0.29000
N58         N  0.76509798  0.81174840  0.25474261    -0.45500
C59         C  0.72869009  0.77073460  0.25726609    -0.04800
C60         C  0.69213714  0.77496946  0.26126580    -0.22200
H61         H  0.64970236  0.82544977  0.26309018     0.19600
H62         H  0.81225916  0.90494464  0.25051783     0.18400
H63         H  0.80255448  0.98225577  0.24832041     0.14700
H64         H  0.65864302  0.74846500  0.26356390     0.14600
H65         H  0.66396527  0.90986687  0.25893969     0.32700
H66         H  0.79702330  0.81944232  0.25097245     0.35500
C67         C  0.25455207  0.15765106  0.26740532     0.21100
C68         C  0.25626482  0.12513121  0.28929495    -0.38800
C69         C  0.25841469  0.09190867  0.26917514     0.20000
C70         C  0.25846646  0.09080476  0.23021126     0.22700
C71         C  0.25685257  0.12345747  0.20824067    -0.39300
C72         C  0.25514861  0.15704720  0.22842961     0.21500
N73         N  0.25552519  0.19430707  0.27992183    -0.32600
C74         C  0.25808652  0.21837152  0.24882175    -0.10100
C75         C  0.25697877  0.19541183  0.21606867    -0.29000
N76         N  0.26219173  0.05655084  0.21800790    -0.45500
C77         C  0.26552129  0.03611320  0.24943691    -0.04800
C78         C  0.26248591  0.05706037  0.28189408    -0.22200
H79         H  0.25715813  0.12635246  0.31979542     0.19600
H80         H  0.25815763  0.12346150  0.17773662     0.18400
H81         H  0.25959950  0.20646833  0.18712000     0.14700
H82         H  0.26396525  0.04847250  0.31098050     0.14600
H83         H  0.25649539  0.20332675  0.30808927     0.32700
H84         H  0.26308508  0.04805388  0.18991016     0.35500
C85         C  0.17863680  0.28932615  0.25209967     0.21100
C86         C  0.16013584  0.31622535  0.25272797    -0.42700
C87         C  0.11476969  0.29365305  0.25135640     0.20000
C88         C  0.08970846  0.24793757  0.24948543     0.22700
C89         C  0.10828070  0.22100068  0.24877829    -0.39300
C90         C  0.15375326  0.24355950  0.25031613     0.21500
N91         N  0.22092844  0.30275652  0.25273010    -0.32600
C92         C  0.22368068  0.26543861  0.25168632    -0.10100
C93         C  0.18194403  0.22771368  0.25010469    -0.29000
N94         N  0.04732802  0.23468462  0.24892319    -0.45500
C95         C  0.04496622  0.27228626  0.25024025    -0.04800
C96         C  0.08692317  0.30965646  0.25184521    -0.22200
H97         H  0.17963458  0.35209362  0.25423407     0.19600
H98         H  0.08877099  0.18514441  0.24724551     0.18400
H99         H  0.17320558  0.19325752  0.24843914     0.14700
H100        H  0.09595401  0.34419224  0.25388401     0.14600
H101        H  0.24659082  0.33575925  0.25302617     0.32700
H102        H  0.02184717  0.20176407  0.24789341     0.35500
C103        C  0.90332357  0.16872296  0.27101786     0.21100
C104        C  0.86575430  0.13992005  0.29155291    -0.38800
C105        C  0.83431902  0.10269109  0.27201728     0.20000
C106        C  0.83973594  0.09442520  0.23491685     0.22700
C107        C  0.87753691  0.12319148  0.21435880    -0.39300
C108        C  0.90909445  0.16062046  0.23394361     0.21500
N109        N  0.93633517  0.20800771  0.28243093    -0.32600
C110        C  0.96349987  0.22584539  0.25228068    -0.10100
C111        C  0.94779131  0.19645926  0.22174373    -0.29000
N112        N  0.80415975  0.05756102  0.22253528    -0.45500
C113        C  0.77553623  0.04246966  0.25185880    -0.04800
C114        C  0.79379382  0.06984625  0.28332446    -0.22200
H115        H  0.86080299  0.14669098  0.32032492     0.19600
H116        H  0.88159905  0.11750036  0.18504277     0.18400
H117        H  0.96155260  0.20206701  0.19363504     0.14700
H118        H  0.77927712  0.06662220  0.31084028     0.14600
H119        H  0.93912028  0.22214810  0.30891453     0.32700
H120        H  0.79922902  0.04397580  0.19554970     0.35500
C121        C  0.10519089  0.81793889  0.24798137     0.21100
C122        C  0.14999105  0.83592871  0.25015761    -0.38800
C123        C  0.17507708  0.88231096  0.24928023     0.20000
C124        C  0.15709626  0.90886528  0.24645478     0.22700
C125        C  0.11201622  0.89077831  0.24438906    -0.39300
C126        C  0.08673735  0.84412132  0.24532842     0.21500
N127        N  0.07470379  0.77483259  0.24842053    -0.32600
C128        C  0.03596610  0.77273977  0.24642138    -0.10100
C129        C  0.04235650  0.81573351  0.24422977    -0.29000
N130        N  0.18827910  0.95204886  0.24605858    -0.45500
C131        C  0.22671753  0.95319145  0.24859623    -0.04800
C132        C  0.21917376  0.90984978  0.25076632    -0.22200
H133        H  0.16426746  0.81526751  0.25238020     0.19600
H134        H  0.09774109  0.91144349  0.24227164     0.18400
H135        H  0.01801269  0.82510243  0.24226370     0.14700
H136        H  0.24294442  0.89973606  0.25329276     0.14600
H137        H  0.07994742  0.74811407  0.25034537     0.32700
H138        H  0.18324521  0.97878348  0.24400787     0.35500
C139        C  0.90456467  0.74835818  0.26386622     0.21100
C140        C  0.87538616  0.75383822  0.28632281    -0.38800
C141        C  0.83835060  0.74791434  0.26789204     0.20000
C142        C  0.83129769  0.73795946  0.22994037     0.22700
C143        C  0.86051349  0.73262079  0.20747848    -0.39300
C144        C  0.89714210  0.73779034  0.22604245     0.21500
N145        N  0.94023911  0.74858375  0.27532214    -0.32600
C146        C  0.95515515  0.73684259  0.24488260    -0.10100
C147        C  0.92928858  0.73062440  0.21339324    -0.29000
N148        N  0.79242628  0.73098788  0.21968202    -0.45500
C149        C  0.77376586  0.73529740  0.25156036    -0.04800
C150        C  0.80212503  0.74693239  0.28203614    -0.22200
H151        H  0.88027471  0.76038493  0.31625082     0.19600
H152        H  0.85421034  0.72316626  0.17812568     0.18400
H153        H  0.93246174  0.72051642  0.18533053     0.14700
H154        H  0.79599616  0.75171609  0.31104588     0.14600
H155        H  0.95251984  0.75425807  0.30269833     0.32700
H156        H  0.77941546  0.72293063  0.19261281     0.35500
C157        C  0.68383562  0.02822710  0.16996042     0.21100
C158        C  0.67495551  0.05568309  0.14745569    -0.38800
C159        C  0.64175477  0.03374946  0.12100784     0.20000
C160        C  0.61916259  0.98797232  0.11736767     0.22700
C161        C  0.62817667  0.96059822  0.13975370    -0.39300
C162        C  0.66141160  0.98261255  0.16611812     0.21500
N163        N  0.71213913  0.04066025  0.19846948    -0.32600
C164        C  0.70788090  0.00274254  0.21337832    -0.10100
C165        C  0.67646869  0.96582430  0.19328353    -0.29000
N166        N  0.58810328  0.97506810  0.09127044    -0.45500
C167        C  0.59086445  0.01285877  0.07817567    -0.04800
C168        C  0.62407224  0.05021983  0.09590782    -0.22200
H169        H  0.69202167  0.09139447  0.15082910     0.19600
H170        H  0.61004080  0.92475137  0.13736529     0.18400
H171        H  0.66458194  0.93100790  0.19805604     0.14700
H172        H  0.63338786  0.08460770  0.09157375     0.14600
H173        H  0.73238554  0.07312889  0.20779154     0.32700
H174        H  0.56595303  0.94248069  0.08324127     0.35500
C175        C  0.62335725  0.99730826  0.38380620     0.21100
C176        C  0.64322537  0.97465448  0.36990440    -0.38800
C177        C  0.66668560  0.99149270  0.33629483     0.20000
C178        C  0.67042525  0.02825996  0.31812321     0.22700
C179        C  0.65148593  0.05174793  0.33253253    -0.39300
C180        C  0.62775027  0.03476443  0.36613327     0.21500
N181        N  0.59716743  0.98616756  0.41397390    -0.32600
C182        C  0.58521748  0.01700395  0.41587282    -0.10100
C183        C  0.60383891  0.04818789  0.38674990    -0.29000
N184        N  0.69280988  0.03621906  0.28581349    -0.45500
C185        C  0.70318046  0.00400914  0.28289118    -0.04800
C186        C  0.68792098  0.97601327  0.31461998    -0.22200
H187        H  0.63964068  0.94530732  0.38368423     0.19600
H188        H  0.65412972  0.08038018  0.31817212     0.18400
H189        H  0.59942233  0.07597790  0.38088667     0.14700
H190        H  0.69185073  0.94816146  0.32145157     0.14600
H191        H  0.58795262  0.95922389  0.43222656     0.32700
H192        H  0.70054309  0.06228827  0.26699699     0.35500
C193        C  0.36762940  0.98872922  0.38643224     0.21100
C194        C  0.32754798  0.96258021  0.36859151    -0.38800
C195        C  0.32031377  0.98188681  0.33677156     0.20000
C196        C  0.35066184  0.02370194  0.32374992     0.22700
C197        C  0.39024254  0.05022688  0.34200871    -0.39300
C198        C  0.39743781  0.03116471  0.37386996     0.21500
N199        N  0.38365070  0.97711485  0.41562393    -0.32600
C200        C  0.42373846  0.01262518  0.42175556    -0.10100
C201        C  0.43326024  0.04712974  0.39659096    -0.29000
N202        N  0.33702719  0.03358249  0.29208051    -0.45500
C203        C  0.29750539  0.99786888  0.28419614    -0.04800
C204        C  0.28577337  0.96524159  0.31239612    -0.22200
H205        H  0.30420630  0.92931629  0.37820086     0.19600
H206        H  0.41413465  0.08291362  0.33163109     0.18400
H207        H  0.46316675  0.07880135  0.39415810     0.14700
H208        H  0.25630525  0.93341863  0.31530408     0.14600
H209        H  0.36863430  0.94672007  0.43002413     0.32700
H210        H  0.35382293  0.06347564  0.27702352     0.35500
C211        C  0.32566474  0.97955494  0.16832946     0.21100
C212        C  0.33416150  0.95537622  0.14163149    -0.38800
C213        C  0.37244409  0.97996230  0.12051354     0.20000
C214        C  0.39984322  0.02520724  0.12536735     0.22700
C215        C  0.39144653  0.04921048  0.15223142    -0.39300
C216        C  0.35345083  0.02447724  0.17360701     0.21500
N217        N  0.29208093  0.96374336  0.19252147    -0.32600
C218        C  0.29875197  0.99861013  0.21439160    -0.10100
C219        C  0.33682974  0.03716817  0.20271626    -0.29000
N220        N  0.43390606  0.04098400  0.10170126    -0.45500
C221        C  0.42835381  0.00550409  0.08181018    -0.04800
C222        C  0.39043543  0.96678753  0.09278761    -0.22200
H223        H  0.31277630  0.91999108  0.13784739     0.19600
H224        H  0.41314094  0.08445535  0.15646101     0.18400
H225        H  0.35075197  0.07031121  0.21401116     0.14700
H226        H  0.37765847  0.93361413  0.08177473     0.14600
H227        H  0.26693635  0.93071890  0.19365748     0.32700
H228        H  0.45949884  0.07388196  0.09932471     0.35500
C229        C  0.00481098  0.62609063  0.11506621     0.21100
C230        C  0.02926231  0.66751384  0.13244145    -0.38800
C231        C  0.00919144  0.67515799  0.16302673     0.20000
C232        C  0.96807371  0.64411512  0.17533266     0.22700
C233        C  0.94330149  0.60281269  0.15769631    -0.39300
C234        C  0.96330840  0.59508011  0.12704070     0.21500
N235        N  0.01685929  0.61055720  0.08582345    -0.32600
C236        C  0.98261044  0.56956383  0.07887298    -0.10100
C237        C  0.94853114  0.55867241  0.10392147    -0.29000
N238        N  0.95681853  0.65925765  0.20535855    -0.45500
C239        C  0.99131516  0.70014875  0.21310533    -0.04800
C240        C  0.02420608  0.71133687  0.18622085    -0.22200
H241        H  0.06165605  0.69183829  0.12304621     0.19600
H242        H  0.91103734  0.57840745  0.16731791     0.18400
H243        H  0.91744669  0.52810884  0.10527227     0.14700
H244        H  0.05524096  0.74165545  0.18350608     0.14600
H245        H  0.04640282  0.62691118  0.07133021     0.32700
H246        H  0.92670704  0.64279535  0.21880107     0.35500
C247        C  0.96582656  0.60714419  0.37815268     0.21100
C248        C  0.94291280  0.60994106  0.34739335    -0.38800
C249        C  0.96447658  0.64955509  0.32647395     0.20000
C250        C  0.00520281  0.68384851  0.33585659     0.22700
C251        C  0.02808117  0.68121025  0.36668311    -0.39300
C252        C  0.00698032  0.64133595  0.38717944     0.21500
N253        N  0.95359529  0.57210442  0.40110049    -0.32600
C254        C  0.98745543  0.58392782  0.42446356    -0.10100
C255        C  0.02137023  0.62685251  0.41673987    -0.29000
N256        N  0.01954425  0.71684059  0.31046120    -0.45500
C257        C  0.98857876  0.70304719  0.28338859    -0.04800
C258        C  0.95291678  0.66165058  0.29363143    -0.22200
H259        H  0.91132973  0.58271266  0.33956103     0.19600
H260        H  0.06054496  0.70760725  0.37335362     0.18400
H261        H  0.05261408  0.64459282  0.43033759     0.14700
H262        H  0.92246226  0.64241414  0.27930296     0.14600
H263        H  0.92470943  0.54142400  0.40001843     0.32700
H264        H  0.04921885  0.74660807  0.31208764     0.35500
C265        C  0.97797874  0.33421399  0.31976690     0.21100
C266        C  0.95402915  0.35163749  0.33587423    -0.38800
C267        C  0.97348014  0.38007544  0.36659632     0.20000
C268        C  0.01390022  0.39072530  0.37974780     0.22700
C269        C  0.03727450  0.37253539  0.36415620    -0.39300
C270        C  0.01757386  0.34374374  0.33380067     0.21500
N271        N  0.96747469  0.30763328  0.28965089    -0.32600
C272        C  0.00068818  0.30008180  0.28399700    -0.10100
C273        C  0.03200282  0.32142866  0.31206396    -0.29000
N274        N  0.02575740  0.41904310  0.40869460    -0.45500
C275        C  0.99229866  0.42575019  0.41457988    -0.04800
C276        C  0.95897801  0.40202968  0.38896836    -0.22200
H277        H  0.92275323  0.34383848  0.32516569     0.19600
H278        H  0.06865897  0.38049720  0.37470622     0.18400
H279        H  0.06170334  0.32138724  0.31645499     0.14700
H280        H  0.92843076  0.40103671  0.38703069     0.14600
H281        H  0.93922549  0.29555228  0.27386899     0.32700
H282        H  0.05437875  0.43214386  0.42415200     0.35500
C283        C  0.01605978  0.34037076  0.16674285     0.21100
C284        C  0.03907830  0.37367225  0.13972227    -0.38800
C285        C  0.01401579  0.38406794  0.11657127     0.20000
C286        C  0.96934635  0.36263679  0.11976239     0.22700
C287        C  0.94632482  0.32935921  0.14693402    -0.39300
C288        C  0.97159484  0.31936803  0.17041139     0.21500
N289        N  0.03277055  0.32599791  0.19305831    -0.32600
C290        C  0.99887317  0.29579332  0.21451976    -0.10100
C291        C  0.96006557  0.29088990  0.20074432    -0.29000
N292        N  0.95326115  0.37943377  0.09490152    -0.45500
C293        C  0.98806932  0.41190794  0.07606394    -0.04800
C294        C  0.02648591  0.41578869  0.08877137    -0.22200
H295        H  0.07403704  0.39086201  0.13742125     0.19600
H296        H  0.91150450  0.31315562  0.15007812     0.18400
H297        H  0.92764040  0.26968102  0.21178210     0.14700
H298        H  0.05916027  0.43911242  0.07929729     0.14600
H299        H  0.06566142  0.33751900  0.19582811     0.32700
H300        H  0.92078738  0.37002211  0.09145749     0.35500
C301        C  0.67205246  0.64722337  0.17845947     0.21100
C302        C  0.65964617  0.60890892  0.15711756    -0.38800
C303        C  0.62958695  0.60046529  0.12853008     0.20000
C304        C  0.61303842  0.62794869  0.12198858     0.22700
C305        C  0.62588390  0.66645649  0.14306982    -0.39300
C306        C  0.65618685  0.67501626  0.17139218     0.21500
N307        N  0.69957086  0.66226026  0.20751412    -0.32600
C308        C  0.70144073  0.70007866  0.21962222    -0.10100
C309        C  0.67512750  0.70928524  0.19671589    -0.29000
N310        N  0.58442313  0.61236770  0.09369704    -0.45500
C311        C  0.58304125  0.57491660  0.08190567    -0.04800
C312        C  0.61076398  0.56635101  0.10288899    -0.22200
H313        H  0.67226822  0.58720172  0.16250350     0.19600
H314        H  0.61311515  0.68807240  0.13788822     0.18400
H315        H  0.66968941  0.73683537  0.19781566     0.14700
H316        H  0.61598512  0.53866070  0.10005206     0.14600
H317        H  0.71703320  0.64802388  0.21748125     0.32700
H318        H  0.56695602  0.62633359  0.08305985     0.35500
C319        C  0.67101908  0.67328971  0.34222919     0.21100
C320        C  0.64681280  0.66830808  0.37486500    -0.38800
C321        C  0.62755386  0.62648060  0.39227233     0.20000
C322        C  0.63281350  0.59242742  0.37881247     0.22700
C323        C  0.65732346  0.59757187  0.34623489    -0.39300
C324        C  0.67589534  0.63928561  0.32841657     0.21500
N325        N  0.68984913  0.70874100  0.31917221    -0.32600
C326        C  0.70595235  0.69717238  0.28939516    -0.10100
C327        C  0.69884421  0.65423275  0.29518441    -0.29000
N328        N  0.60938423  0.55525229  0.39949468    -0.45500
C329        C  0.58849921  0.56574160  0.42565097    -0.04800
C330        C  0.59920348  0.60982864  0.42222910    -0.22200
H331        H  0.64191999  0.69452038  0.38510591     0.19600
H332        H  0.66040266  0.57065695  0.33486117     0.18400
H333        H  0.70842470  0.63564405  0.27759573     0.14700
H334        H  0.58701456  0.62700972  0.43888159     0.14600
H335        H  0.69096945  0.73873697  0.32401930     0.32700
H336        H  0.60631964  0.52428422  0.39513226     0.35500
C337        C  0.39446029  0.35866501  0.37670474     0.21100
C338        C  0.38628532  0.32857832  0.34733800    -0.38800
C339        C  0.34877756  0.31608446  0.32623234     0.20000
C340        C  0.32109616  0.33143858  0.33427072     0.22700
C341        C  0.32947777  0.36187367  0.36328485    -0.39300
C342        C  0.36733469  0.37508126  0.38389366     0.21500
N343        N  0.42820885  0.37633001  0.40055882    -0.32600
C344        C  0.42263316  0.40454196  0.42271095    -0.10100
C345        C  0.38516010  0.40476744  0.41302823    -0.29000
N346        N  0.28768920  0.31456836  0.31021653    -0.45500
C347        C  0.29461960  0.28929033  0.28529624    -0.04800
C348        C  0.33241124  0.28917542  0.29517402    -0.22200
H349        H  0.40780771  0.31629745  0.34104979     0.19600
H350        H  0.30835213  0.37477182  0.36907397     0.18400
H351        H  0.37271171  0.42417724  0.42560494     0.14700
H352        H  0.34604089  0.27133768  0.28180011     0.14600
H353        H  0.45377840  0.37020073  0.40130224     0.32700
H354        H  0.26227747  0.32072110  0.31137896     0.35500
C355        C  0.36690019  0.38095428  0.11664712     0.21100
C356        C  0.32697906  0.36542163  0.13504054    -0.38800
C357        C  0.31823143  0.33573881  0.16507788     0.20000
C358        C  0.34700191  0.32277410  0.17596634     0.22700
C359        C  0.38653429  0.33763711  0.15720766    -0.39300
C360        C  0.39525789  0.36710274  0.12710486     0.21500
N361        N  0.38362937  0.41054003  0.08816800    -0.32600
C362        C  0.42264596  0.41505073  0.08028549    -0.10100
C363        C  0.43095671  0.38836272  0.10380258    -0.29000
N364        N  0.33205544  0.29606926  0.20633161    -0.45500
C365        C  0.29341470  0.29200535  0.21557023    -0.04800
C366        C  0.28343531  0.31571051  0.18946530    -0.22200
H367        H  0.30475229  0.37622473  0.12700574     0.19600
H368        H  0.40915900  0.32758751  0.16583098     0.18400
H369        H  0.45966683  0.38568943  0.10431085     0.14700
H370        H  0.25507648  0.31884078  0.18822455     0.14600
H371        H  0.36946560  0.42664958  0.07493979     0.32700
H372        H  0.34743307  0.28135826  0.21962651     0.35500
O373        O  0.48229033  0.42577565  0.54136733    -0.71100
O374        O  0.55917851  0.51658416  0.96224039    -0.71300
O375        O  0.55912289  0.50139735  0.54099867    -0.71100
O376        O  0.48285125  0.44055486  0.96227973    -0.71100
O377        O  0.44925637  0.47751223  0.96321346    -0.71100
O378        O  0.52670441  0.53952013  0.54027011    -0.71100
O379        O  0.52580610  0.55375435  0.96281074    -0.71100
O380        O  0.44992607  0.46395363  0.54128398    -0.71200
V381        V  0.52005502  0.46427430  0.50300658     1.35200
V382        V  0.48814862  0.51461497  0.00074501     1.35200
C383        C  0.45361641  0.43264160  0.55481584     0.78200
C384        C  0.55517123  0.54797802  0.94934088     0.78200
C385        C  0.55600890  0.53359545  0.55318438     0.78100
C386        C  0.45312028  0.44628170  0.94994686     0.78100
O387        O  0.01563200  0.54771605  0.95908765    -0.71100
O388        O  0.02787009  0.47872513  0.53309228    -0.71300
O389        O  0.01800954  0.47221874  0.95842568    -0.71100
O390        O  0.02561455  0.55404857  0.53944056    -0.71100
O391        O  0.95517390  0.51600670  0.54020724    -0.71100
O392        O  0.94759737  0.43468062  0.95879451    -0.71100
O393        O  0.95746486  0.44120944  0.53544470    -0.71100
O394        O  0.94524127  0.51024026  0.96115804    -0.71200
V395        V  0.01637203  0.50943228  0.99631623     1.35200
V396        V  0.95707286  0.48160838  0.49988511     1.35200
C397        C  0.97996145  0.54229624  0.94782491     0.78200
C398        C  0.99326039  0.44646452  0.54623247     0.78200
C399        C  0.98297963  0.44054554  0.94577220     0.78100
C400        C  0.99023962  0.54687026  0.55352113     0.78100
O401        O  0.56418415  0.05212390  0.53376344    -0.71100
O402        O  0.48750853  0.04764233  0.96452857    -0.71300
O403        O  0.48869425  0.05018939  0.53734868    -0.71100
O404        O  0.56400054  0.05181651  0.96147923    -0.71100
O405        O  0.53154123  0.97969721  0.96169677    -0.71100
O406        O  0.45354917  0.97792676  0.53699170    -0.71100
O407        O  0.45500844  0.97553876  0.96269886    -0.71100
O408        O  0.52947522  0.97989880  0.53415603    -0.71200
V409        V  0.52398106  0.04972816  0.49762857     1.35200
V410        V  0.49365632  0.97782468  0.99991761     1.35200
C411        C  0.56013393  0.01630771  0.54632426     0.78200
C412        C  0.45833504  0.01120431  0.95094135     0.78200
C413        C  0.45845532  0.01367309  0.55017190     0.78100
C414        C  0.56045266  0.01663525  0.94824906     0.78100
C415        C  0.99517997  0.73217771  0.75031974    -0.01800
C416        C  0.00403479  0.27216121  0.74686342    -0.01800
C417        C  0.26648081  0.26305480  0.75652306    -0.01800
C418        C  0.27649685  0.99687685  0.75123902    -0.01800
C419        C  0.72949358  0.00486134  0.74669592    -0.01800
C420        C  0.72935721  0.73059486  0.74624667    -0.01800
C421        C  0.71001691  0.89199418  0.74598052     0.21100
C422        C  0.68471829  0.84556507  0.74589629    -0.38800
C423        C  0.70772627  0.82322306  0.74524702     0.20000
C424        C  0.75242400  0.84516642  0.74452412     0.22700
C425        C  0.77782195  0.89180663  0.74445006    -0.39300
C426        C  0.75473490  0.91428012  0.74537265     0.21500
N427        N  0.69577254  0.92065130  0.74658033    -0.32600
C428        C  0.73149786  0.96204397  0.74672758    -0.10100
C429        C  0.76905494  0.95906522  0.74577788    -0.29000
N430        N  0.76623105  0.81595449  0.74451077    -0.45500
C431        C  0.72993698  0.77480841  0.74554486    -0.04800
C432        C  0.69294327  0.77860395  0.74568396    -0.22200
H433        H  0.64967291  0.82810758  0.74655547     0.19600
H434        H  0.81286375  0.90925943  0.74397478     0.18400
H435        H  0.80247763  0.98586971  0.74512532     0.14700
H436        H  0.65941254  0.75193655  0.74641631     0.14600
H437        H  0.66338757  0.91232646  0.74624067     0.32700
H438        H  0.79850492  0.82397189  0.74394966     0.35500
C439        C  0.25868369  0.15708381  0.77493546     0.21100
C440        C  0.26516804  0.12696221  0.79588366    -0.38800
C441        C  0.26506658  0.09294246  0.77514883     0.20000
C442        C  0.25880009  0.08904564  0.73658380     0.22700
C443        C  0.25220280  0.11911632  0.71563045    -0.39300
C444        C  0.25246300  0.15329302  0.73635688     0.21500
N445        N  0.26108382  0.19434083  0.78755903    -0.32600
C446        C  0.25763565  0.21541595  0.75666087    -0.10100
C447        C  0.25088259  0.18985201  0.72433685    -0.29000
N448        N  0.26151611  0.05465055  0.72339025    -0.45500
C449        C  0.27026633  0.03675445  0.75369119    -0.04800
C450        C  0.27202376  0.05959940  0.78661145    -0.22200
H451        H  0.27117713  0.13054733  0.82592096     0.19600
H452        H  0.24842528  0.11683157  0.68530800     0.18400
H453        H  0.24847835  0.19859833  0.69551138     0.14700
H454        H  0.27796008  0.05301378  0.81512639     0.14600
H455        H  0.26657788  0.20539200  0.81539324     0.32700
H456        H  0.25821019  0.04432920  0.69540242     0.35500
C457        C  0.17879420  0.28671812  0.75262360     0.21100
C458        C  0.16071809  0.31388602  0.75033697    -0.42700
C459        C  0.11546817  0.29154891  0.74836640     0.20000
C460        C  0.09014765  0.24574250  0.74843416     0.22700
C461        C  0.10832282  0.21851163  0.75060173    -0.39300
C462        C  0.15371251  0.24090528  0.75278734     0.21500
N463        N  0.22091524  0.29998736  0.75462005    -0.32600
C464        C  0.22345285  0.26256606  0.75594121    -0.10100
C465        C  0.18165447  0.22486446  0.75505674    -0.29000
N466        N  0.04789896  0.23276282  0.74712718    -0.45500
C467        C  0.04601703  0.27064971  0.74661100    -0.04800
C468        C  0.08796051  0.30792925  0.74701295    -0.22200
H469        H  0.18044803  0.34979478  0.75036467     0.19600
H470        H  0.08859116  0.18260832  0.75079549     0.18400
H471        H  0.17271781  0.19029366  0.75544294     0.14700
H472        H  0.09702938  0.34255996  0.74690436     0.14600
H473        H  0.24658791  0.33298121  0.75432704     0.32700
H474        H  0.02217191  0.19994009  0.74729666     0.35500
C475        C  0.91055273  0.16199149  0.76197202     0.21100
C476        C  0.87871742  0.12667945  0.78372063    -0.38800
C477        C  0.84084324  0.09672617  0.76448870     0.20000
C478        C  0.83526580  0.10153839  0.72655431     0.22700
C479        C  0.86723134  0.13647819  0.70475519    -0.39300
C480        C  0.90490513  0.16648831  0.72400565     0.21500
N481        N  0.94752313  0.19713766  0.77424588    -0.32600
C482        C  0.96514102  0.22493974  0.74411918    -0.10100
C483        C  0.93978034  0.20597301  0.71199555    -0.29000
N484        N  0.79573856  0.07008177  0.71524999    -0.45500
C485        C  0.77551222  0.04492510  0.74627078    -0.04800
C486        C  0.80309220  0.06036340  0.77744736    -0.22200
H487        H  0.88252384  0.12363034  0.81364852     0.19600
H488        H  0.86244411  0.14091624  0.67530310     0.18400
H489        H  0.94472270  0.22022154  0.68398437     0.14700
H490        H  0.79599651  0.04715278  0.80591107     0.14600
H491        H  0.95878121  0.20309849  0.80198651     0.32700
H492        H  0.78359511  0.06618791  0.68794152     0.35500
C493        C  0.10876616  0.81983701  0.74906847     0.21100
C494        C  0.15363028  0.83702190  0.74836204    -0.38800
C495        C  0.17945146  0.88344637  0.74795569     0.20000
C496        C  0.16193879  0.91053467  0.74799589     0.22700
C497        C  0.11696590  0.89326269  0.74808332    -0.39300
C498        C  0.09102658  0.84673946  0.74873576     0.21500
N499        N  0.07755444  0.77697684  0.75038171    -0.32600
C500        C  0.03909856  0.77582660  0.75071675    -0.10100
C501        C  0.04648451  0.81920006  0.74961852    -0.29000
N502        N  0.19337199  0.95346388  0.74898700    -0.45500
C503        C  0.23166985  0.95422329  0.74959568    -0.04800
C504        C  0.22376961  0.91064526  0.74870265    -0.22200
H505        H  0.16738065  0.81579357  0.74874243     0.19600
H506        H  0.10323051  0.91449606  0.74821570     0.18400
H507        H  0.02267422  0.82937913  0.74931964     0.14700
H508        H  0.24740804  0.90020259  0.74889173     0.14600
H509        H  0.08224501  0.74988413  0.75036969     0.32700
H510        H  0.18841138  0.98038664  0.74961787     0.35500
C511        C  0.90627819  0.75247162  0.76395087     0.21100
C512        C  0.87654350  0.75898034  0.78480522    -0.38800
C513        C  0.83970188  0.75206667  0.76506733     0.20000
C514        C  0.83330850  0.73984914  0.72754907     0.22700
C515        C  0.86284358  0.73331762  0.70684899    -0.39300
C516        C  0.89934040  0.73997104  0.72652715     0.21500
N517        N  0.94226339  0.75385764  0.77656145    -0.32600
C518        C  0.95784893  0.74115810  0.74714883    -0.10100
C519        C  0.93198989  0.73302279  0.71529034    -0.29000
N520        N  0.79495796  0.73280669  0.71564183    -0.45500
C521        C  0.77575503  0.73954953  0.74592155    -0.04800
C522        C  0.80333773  0.75257486  0.77716203    -0.22200
H523        H  0.88108157  0.76744051  0.81442215     0.19600
H524        H  0.85707572  0.72235944  0.67783316     0.18400
H525        H  0.93535541  0.72161533  0.68786332     0.14700
H526        H  0.79663461  0.75931299  0.80536397     0.14600
H527        H  0.95425836  0.76076175  0.80402785     0.32700
H528        H  0.78261540  0.72313975  0.68850165     0.35500
C529        C  0.67556699  0.03091007  0.67276515     0.21100
C530        C  0.66164966  0.05671760  0.65397703    -0.38800
C531        C  0.63487831  0.03670815  0.62273146     0.20000
C532        C  0.62254029  0.99405789  0.61139945     0.22700
C533        C  0.63721813  0.96865898  0.62975601    -0.39300
C534        C  0.66436935  0.98894157  0.66073340     0.21500
N535        N  0.69997290  0.04174624  0.70390506    -0.32600
C536        C  0.70477363  0.00650934  0.71209905    -0.10100
C537        C  0.68339392  0.97322416  0.68493439    -0.29000
N538        N  0.59485894  0.98160773  0.58237684    -0.45500
C539        C  0.58992770  0.01677886  0.57491121    -0.04800
C540        C  0.61465611  0.05192351  0.59926803    -0.22200
H541        H  0.67042219  0.08964248  0.66337876     0.19600
H542        H  0.62763159  0.93530432  0.62097118     0.18400
H543        H  0.68139627  0.94147404  0.68270687     0.14700
H544        H  0.61626937  0.08361787  0.60054996     0.14600
H545        H  0.71290048  0.07167445  0.71828495     0.32700
H546        H  0.57982604  0.95093027  0.56880758     0.35500
C547        C  0.61886676  0.99409017  0.87933024     0.21100
C548        C  0.63079585  0.96748443  0.85953446    -0.38800
C549        C  0.66181791  0.98900627  0.83110838     0.20000
C550        C  0.67932498  0.03344767  0.82257473     0.22700
C551        C  0.66793770  0.06051025  0.84288405    -0.39300
C552        C  0.63699031  0.03900291  0.87175675     0.21500
N553        N  0.58951999  0.98097858  0.90718919    -0.32600
C554        C  0.58901878  0.01771112  0.91800193    -0.10100
C555        C  0.61824457  0.05479345  0.89661070    -0.29000
N556        N  0.70628418  0.04491272  0.79276045    -0.45500
C557        C  0.70588740  0.00739456  0.78193453    -0.04800
C558        C  0.67908098  0.97217051  0.80630629    -0.22200
H559        H  0.61650460  0.93237211  0.86552794     0.19600
H560        H  0.68166218  0.09542579  0.83637294     0.18400
H561        H  0.62455643  0.08842881  0.89871377     0.14700
H562        H  0.67181838  0.93824298  0.80624899     0.14600
H563        H  0.57097496  0.94885247  0.91830930     0.32700
H564        H  0.72395253  0.07654516  0.78068802     0.35500
C565        C  0.37535360  0.98457020  0.88369553     0.21100
C566        C  0.33661218  0.95754282  0.86431814    -0.38800
C567        C  0.32786091  0.97830975  0.83462602     0.20000
C568        C  0.35585271  0.02215590  0.82480530     0.22700
C569        C  0.39413386  0.04937821  0.84451093    -0.39300
C570        C  0.40264074  0.02892974  0.87445358     0.21500
N571        N  0.39162752  0.97272537  0.91239875    -0.32600
C572        C  0.42915723  0.00998945  0.92169656    -0.10100
C573        C  0.43708644  0.04580119  0.89881199    -0.29000
N574        N  0.34101670  0.03363418  0.79496400    -0.45500
C575        C  0.30287236  0.99710012  0.78525431    -0.04800
C576        C  0.29340067  0.96195372  0.81020786    -0.22200
H577        H  0.31508186  0.92293582  0.87165501     0.19600
H578        H  0.41583790  0.08386061  0.83689332     0.18400
H579        H  0.46481671  0.07925507  0.89930319     0.14700
H580        H  0.26551549  0.92876801  0.81105674     0.14600
H581        H  0.37816811  0.94124329  0.92481620     0.32700
H582        H  0.35582718  0.06526553  0.78268927     0.35500
C583        C  0.32721594  0.98678943  0.66569080     0.21100
C584        C  0.33328035  0.96420622  0.63608894    -0.38800
C585        C  0.37213923  0.98843903  0.61604248     0.20000
C586        C  0.40234772  0.03226109  0.62417400     0.22700
C587        C  0.39624966  0.05492164  0.65389722    -0.39300
C588        C  0.35762571  0.03013996  0.67454717     0.21500
N589        N  0.29396198  0.97001905  0.69009148    -0.32600
C590        C  0.30346313  0.00230708  0.71588409    -0.10100
C591        C  0.34285214  0.04072932  0.70633019    -0.29000
N592        N  0.43706224  0.04734659  0.60134317    -0.45500
C593        C  0.42887698  0.01247727  0.57917014    -0.04800
C594        C  0.38876078  0.97528093  0.58740867    -0.22200
H595        H  0.30999393  0.92982140  0.62984507     0.19600
H596        H  0.42026707  0.08876464  0.66107668     0.18400
H597        H  0.35882417  0.07234702  0.72056481     0.14700
H598        H  0.37394068  0.94289059  0.57436413     0.14600
H599        H  0.26710390  0.93794412  0.68879245     0.32700
H600        H  0.46493566  0.07891959  0.60141152     0.35500
C601        C  0.01046191  0.63077823  0.62004727     0.21100
C602        C  0.03334934  0.67283181  0.63645575    -0.38800
C603        C  0.01253799  0.67982709  0.66672362     0.20000
C604        C  0.97232077  0.64753303  0.67988846     0.22700
C605        C  0.94888493  0.60565053  0.66297780    -0.39300
C606        C  0.96952732  0.59865400  0.63241373     0.21500
N607        N  0.02333950  0.61589679  0.59098481    -0.32600
C608        C  0.99004744  0.57433677  0.58432624    -0.10100
C609        C  0.95583539  0.56227460  0.60950523    -0.29000
N610        N  0.96069881  0.66209694  0.71006839    -0.45500
C611        C  0.99405514  0.70398304  0.71678323    -0.04800
C612        C  0.02632743  0.71634791  0.68908435    -0.22200
H613        H  0.06517499  0.69810105  0.62660538     0.19600
H614        H  0.91716825  0.58035731  0.67301963     0.18400
H615        H  0.92520664  0.53119799  0.61079825     0.14700
H616        H  0.05625745  0.74763487  0.68529961     0.14600
H617        H  0.05255153  0.63329390  0.57602010     0.32700
H618        H  0.93153372  0.64427269  0.72484827     0.35500
C619        C  0.95977390  0.60302954  0.87771381     0.21100
C620        C  0.93684631  0.61131759  0.84995686    -0.38800
C621        C  0.96142289  0.65057310  0.82874741     0.20000
C622        C  0.00490477  0.67942321  0.83533239     0.22700
C623        C  0.02769910  0.67116421  0.86281385    -0.39300
C624        C  0.00359237  0.63185414  0.88339693     0.21500
N625        N  0.94491335  0.56724633  0.90054026    -0.32600
C626        C  0.97992335  0.57355680  0.92023901    -0.10100
C627        C  0.01690109  0.61341929  0.91033999    -0.29000
N628        N  0.02160465  0.71318921  0.81064345    -0.45500
C629        C  0.98919291  0.70545851  0.78654434    -0.04800
C630        C  0.95066335  0.66705602  0.79796367    -0.22200
H631        H  0.90289857  0.58834914  0.84450674     0.19600
H632        H  0.06210802  0.69312030  0.86704172     0.18400
H633        H  0.04939005  0.62679707  0.92106249     0.14700
H634        H  0.91909083  0.65251592  0.78511843     0.14600
H635        H  0.91343208  0.53989848  0.90194444     0.32700
H636        H  0.05381333  0.73899770  0.81053714     0.35500
C637        C  0.97225904  0.31803644  0.82422797     0.21100
C638        C  0.94548131  0.33054342  0.84272902    -0.38800
C639        C  0.96502448  0.36138614  0.87194124     0.20000
C640        C  0.00783143  0.37815708  0.88191084     0.22700
C641        C  0.03421446  0.36499543  0.86386572    -0.39300
C642        C  0.01475004  0.33448362  0.83455487     0.21500
N643        N  0.96265004  0.29218034  0.79370084    -0.32600
C644        C  0.99965724  0.29302088  0.78346403    -0.10100
C645        C  0.03242661  0.31811844  0.80954203    -0.29000
N646        N  0.01946436  0.40849640  0.90922893    -0.45500
C647        C  0.98380060  0.41092042  0.91701077    -0.04800
C648        C  0.94903336  0.38190628  0.89445608    -0.22200
H649        H  0.91239064  0.31832001  0.83418870     0.19600
H650        H  0.06787422  0.37866976  0.87125944     0.18400
H651        H  0.06549728  0.32555720  0.80994611     0.14700
H652        H  0.91680202  0.37715325  0.89410038     0.14600
H653        H  0.93254959  0.27515551  0.78076554     0.32700
H654        H  0.04989633  0.42653979  0.92182932     0.35500
C655        C  0.01936180  0.33972517  0.66269707     0.21100
C656        C  0.04033931  0.36550807  0.63052949    -0.38800
C657        C  0.01763287  0.38214562  0.61098503     0.20000
C658        C  0.97683072  0.37287114  0.62218902     0.22700
C659        C  0.95612054  0.34739205  0.65432398    -0.39300
C660        C  0.97921020  0.33167753  0.67416815     0.21500
N661        N  0.03384598  0.32010598  0.68630109    -0.32600
C662        C  0.00294542  0.29999136  0.71369290    -0.10100
C663        C  0.96833079  0.30664498  0.70643492    -0.29000
N664        N  0.96237389  0.39318760  0.59955500    -0.45500
C665        C  0.99454674  0.41634358  0.57419273    -0.04800
C666        C  0.02953948  0.41027227  0.58023609    -0.22200
H667        H  0.07218810  0.37268056  0.62175111     0.19600
H668        H  0.92460680  0.34084660  0.66354047     0.18400
H669        H  0.93808214  0.29353506  0.72153820     0.14700
H670        H  0.05988072  0.42523505  0.56478532     0.14600
H671        H  0.06259457  0.31992244  0.68283523     0.32700
H672        H  0.93326011  0.39287413  0.60216961     0.35500
C673        C  0.67608559  0.64610414  0.67399933     0.21100
C674        C  0.66255200  0.60523539  0.65644732    -0.38800
C675        C  0.63322973  0.59460557  0.62681889     0.20000
C676        C  0.61853144  0.62258194  0.61584286     0.22700
C677        C  0.63284544  0.66380779  0.63283702    -0.39300
C678        C  0.66231627  0.67442566  0.66224912     0.21500
N679        N  0.70198578  0.66279129  0.70399196    -0.32600
C680        C  0.70486363  0.70223333  0.71193403    -0.10100
C681        C  0.68115413  0.71085060  0.68533084    -0.29000
N682        N  0.58932431  0.60416753  0.58830033    -0.45500
C683        C  0.58570598  0.56439886  0.58135225    -0.04800
C684        C  0.61271540  0.55719485  0.60463996    -0.22200
H685        H  0.67333823  0.58300159  0.66569908     0.19600
H686        H  0.62122179  0.68557701  0.62429359     0.18400
H687        H  0.67706818  0.73920819  0.68279960     0.14700
H688        H  0.61609488  0.52821696  0.60576414     0.14600
H689        H  0.71718592  0.64819396  0.71761545     0.32700
H690        H  0.57277316  0.61774989  0.57510674     0.35500
C691        C  0.66362908  0.67900085  0.83066836     0.21100
C692        C  0.63412969  0.67308355  0.85928672    -0.38800
C693        C  0.61726304  0.63349896  0.87994891     0.20000
C694        C  0.62935432  0.60241287  0.87309918     0.22700
C695        C  0.65861156  0.60818355  0.84410830    -0.39300
C696        C  0.67495873  0.64764097  0.82301252     0.21500
N697        N  0.68316012  0.71333733  0.80659334    -0.32600
C698        C  0.70593215  0.70336075  0.78178767    -0.10100
C699        C  0.70238563  0.66288653  0.79224329    -0.29000
N700        N  0.60908501  0.56793113  0.89721736    -0.45500
C701        C  0.58373210  0.57718747  0.91919995    -0.04800
C702        C  0.58774313  0.61759807  0.90911489    -0.22200
H703        H  0.62463786  0.69733664  0.86477545     0.19600
H704        H  0.66758519  0.58362785  0.83816457     0.18400
H705        H  0.71764042  0.64644607  0.77929800     0.14700
H706        H  0.57146101  0.63333167  0.92164007     0.14600
H707        H  0.68023350  0.74143109  0.80782233     0.32700
H708        H  0.61195089  0.53972429  0.89841959     0.35500
C709        C  0.39529647  0.36760750  0.87791564     0.21100
C710        C  0.38695338  0.33485938  0.85113669    -0.38800
C711        C  0.34885444  0.31974594  0.83041199     0.20000
C712        C  0.32081138  0.33511850  0.83653085     0.22700
C713        C  0.32950467  0.36839644  0.86279004    -0.39300
C714        C  0.36794205  0.38419330  0.88299565     0.21500
N715        N  0.42921308  0.38749702  0.90127850    -0.32600
C716        C  0.42347623  0.41722386  0.92093439    -0.10100
C717        C  0.38580781  0.41633467  0.91022413    -0.29000
N718        N  0.28669688  0.31522589  0.81346964    -0.45500
C719        C  0.29365481  0.28806299  0.79095245    -0.04800
C720        C  0.33218255  0.28988772  0.80141857    -0.22200
H721        H  0.40865852  0.32240428  0.84654006     0.19600
H722        H  0.30807921  0.38127089  0.86696486     0.18400
H723        H  0.37303140  0.43619006  0.92119037     0.14700
H724        H  0.34632915  0.27178688  0.78951431     0.14600
H725        H  0.45473885  0.38141715  0.90359158     0.32700
H726        H  0.26094987  0.32089303  0.81360981     0.35500
C727        C  0.37158870  0.37601214  0.62446150     0.21100
C728        C  0.33228776  0.36256302  0.64292139    -0.38800
C729        C  0.32188430  0.33202582  0.67234503     0.20000
C730        C  0.34878203  0.31668249  0.68319912     0.22700
C731        C  0.38802657  0.32966654  0.66440711    -0.39300
C732        C  0.39817029  0.35971647  0.63435622     0.21500
N733        N  0.38828342  0.40427682  0.59522816    -0.32600
C734        C  0.42535175  0.40538245  0.58583249    -0.10100
C735        C  0.43283831  0.37818328  0.60962152    -0.29000
N736        N  0.33196787  0.28932470  0.71307122    -0.45500
C737        C  0.29408499  0.28740938  0.72172434    -0.04800
C738        C  0.28640419  0.31279876  0.69569435    -0.22200
H739        H  0.31129995  0.37494302  0.63492430     0.19600
H740        H  0.40898676  0.31729578  0.67251891     0.18400
H741        H  0.45994396  0.37280333  0.60893908     0.14700
H742        H  0.25917762  0.31769319  0.69361854     0.14600
H743        H  0.37492898  0.42121588  0.58207659     0.32700
H744        H  0.34559381  0.27281436  0.72649996     0.35500
loop_ 
_geom_bond_atom_site_label_1 
_geom_bond_atom_site_label_2 
_geom_bond_distance 
_geom_bond_site_symmetry_2 
_ccdc_geom_bond_type 
O1            V9   1.898       .  S
O1           C11   1.264       .  A
O2          V381   1.900       .  S
O2           C12   1.263       .  A
O3            V9   1.898       .  S
O3           C13   1.264       .  A
O4          V381   1.911       .  S
O4           C14   1.267       .  A
O5           V10   1.891       .  S
O5           C14   1.262       .  A
O6          V382   1.897       .  S
O6           C13   1.263       .  A
O7           V10   1.893       .  S
O7           C12   1.263       .  A
O8          V382   1.897       .  S
O8           C11   1.263       .  A
V9          O374   1.901   1_554  S
V9          O376   1.896   1_554  S
V9          V382   2.090       .  T
V10         O378   1.884       .  S
V10         O380   1.894       .  S
V10         V381   2.089       .  T
C11         C362   1.465       .  S
C12         C329   1.463       .  S
C13         C311   1.466       .  S
C14         C344   1.472       .  S
O15          V23   1.896       .  S
O15          C25   1.263   1_455  A
O16         V395   1.890   1_554  S
O16          C26   1.262   1_455  A
O17          V23   1.894       .  S
O17          C27   1.263   1_455  A
O18         V395   1.895   1_554  S
O18          C28   1.263   1_455  A
O19          V24   1.900   1_554  S
O19          C28   1.264       .  A
O20         V396   1.897       .  S
O20          C27   1.263       .  A
O21          V24   1.902   1_554  S
O21          C26   1.264       .  A
O22         V396   1.896       .  S
O22          C25   1.263       .  A
V23         O388   1.896       .  S
V23         O390   1.894       .  S
V23         V396   2.090   1_455  T
V24         O392   1.902       .  S
V24         O394   1.906       .  S
V24         V395   2.089   1_655  T
C25         C254   1.462       .  S
C26         C293   1.465       .  S
C27         C275   1.463       .  S
C28         C236   1.465       .  S
O29          V37   1.905       .  S
O29          C39   1.265       .  A
O30         V409   1.901       .  S
O30          C40   1.265       .  A
O31          V37   1.904       .  S
O31          C41   1.265       .  A
O32         V409   1.898       .  S
O32          C42   1.263       .  A
O33          V38   1.895       .  S
O33          C42   1.263   1_565  A
O34         V410   1.897   1_554  S
O34          C41   1.263   1_565  A
O35          V38   1.901       .  S
O35          C40   1.264   1_565  A
O36         V410   1.894   1_554  S
O36          C39   1.262   1_565  A
V37         O402   1.901   1_554  S
V37         O404   1.905   1_554  S
V37         V410   2.089   1_544  T
V38         O406   1.892       .  S
V38         O408   1.900       .  S
V38         V409   2.089   1_565  T
C39         C167   1.469       .  S
C40         C200   1.469       .  S
C41         C221   1.470       .  S
C42         C182   1.462       .  S
C43         C128   1.531   1_655  S
C43         C146   1.524       .  S
C43         C239   1.539       .  S
C43         C257   1.536       .  S
C44          C95   1.544       .  S
C44         C110   1.534   1_455  S
C44         C272   1.537       .  S
C44         C290   1.536   1_455  S
C45          C74   1.536       .  S
C45          C92   1.539       .  S
C45         C347   1.541       .  S
C45         C365   1.535       .  S
C46          C77   1.532   1_565  S
C46         C131   1.538       .  S
C46         C203   1.539       .  S
C46         C218   1.539       .  S
C47          C56   1.537   1_545  S
C47         C113   1.531       .  S
C47         C164   1.534       .  S
C47         C185   1.531       .  S
C48          C59   1.539       .  S
C48         C149   1.526       .  S
C48         C308   1.540       .  S
C48         C326   1.537       .  S
C49          C54   1.381       .  A
C49          C50   1.402       .  A
C49          N55   1.340       .  A
C50          C51   1.400       .  A
C50          H61   1.082       .  S
C51          C60   1.373       .  A
C51          C52   1.381       .  A
C52          C53   1.407       .  A
C52          N58   1.346       .  A
C53          C54   1.406       .  A
C53          H62   1.082       .  S
C54          C57   1.381       .  A
N55          C56   1.359       .  A
N55          H65   1.045       .  S
C56          C57   1.405       .  A
C57          H63   1.082       .  S
N58          C59   1.363       .  A
N58          H66   1.043       .  S
C59          C60   1.401       .  A
C60          H64   1.083       .  S
C67          C72   1.382       .  A
C67          C68   1.403       .  A
C67          N73   1.343       .  A
C68          C69   1.402       .  A
C68          H79   1.082       .  S
C69          C78   1.376       .  A
C69          C70   1.382       .  A
C70          C71   1.407       .  A
C70          N76   1.346       .  A
C71          C72   1.407       .  A
C71          H80   1.082       .  S
C72          C75   1.380       .  A
N73          C74   1.359       .  A
N73          H83   1.044       .  S
C74          C75   1.404       .  A
C75          H81   1.082       .  S
N76          C77   1.361       .  A
N76          H84   1.046       .  S
C77          C78   1.400       .  A
C78          H82   1.082       .  S
C85          C90   1.381       .  A
C85          C86   1.403       .  A
C85          N91   1.341       .  A
C86          C87   1.402       .  A
C86          H97   1.082       .  S
C87          C96   1.374       .  A
C87          C88   1.380       .  A
C88          C89   1.407       .  A
C88          N94   1.346       .  A
C89          C90   1.406       .  A
C89          H98   1.082       .  S
C90          C93   1.381       .  A
N91          C92   1.360       .  A
N91         H101   1.047       .  S
C92          C93   1.404       .  A
C93          H99   1.082       .  S
N94          C95   1.363       .  A
N94         H102   1.044       .  S
C95          C96   1.404       .  A
C96         H100   1.083       .  S
C103        C108   1.383       .  A
C103        C104   1.401       .  A
C103        N109   1.342       .  A
C104        C105   1.401       .  A
C104        H115   1.082       .  S
C105        C114   1.372       .  A
C105        C106   1.382       .  A
C106        C107   1.406       .  A
C106        N112   1.347       .  A
C107        C108   1.407       .  A
C107        H116   1.082       .  S
C108        C111   1.379       .  A
N109        C110   1.359       .  A
N109        H119   1.044       .  S
C110        C111   1.403       .  A
C111        H117   1.082       .  S
N112        C113   1.360       .  A
N112        H120   1.045       .  S
C113        C114   1.402       .  A
C114        H118   1.082       .  S
C121        C126   1.382       .  A
C121        C122   1.399       .  A
C121        N127   1.337       .  A
C122        C123   1.398       .  A
C122        H133   1.082       .  S
C123        C132   1.371       .  A
C123        C124   1.380       .  A
C124        C125   1.408       .  A
C124        N130   1.345       .  A
C125        C126   1.406       .  A
C125        H134   1.082       .  S
C126        C129   1.383       .  A
N127        C128   1.358       .  A
N127        H137   1.046       .  S
C128        C129   1.404       .  A
C129        H135   1.082       .  S
N130        C131   1.364       .  A
N130        H138   1.042       .  S
C131        C132   1.400       .  A
C132        H136   1.083       .  S
C139        C144   1.383       .  A
C139        C140   1.403       .  A
C139        N145   1.342       .  A
C140        C141   1.402       .  A
C140        H151   1.082       .  S
C141        C150   1.376       .  A
C141        C142   1.383       .  A
C142        C143   1.402       .  A
C142        N148   1.341       .  A
C143        C144   1.401       .  A
C143        H152   1.082       .  S
C144        C147   1.375       .  A
N145        C146   1.358       .  A
N145        H155   1.045       .  S
C146        C147   1.400       .  A
C147        H153   1.082       .  S
N148        C149   1.359       .  A
N148        H156   1.044       .  S
C149        C150   1.400       .  A
C150        H154   1.082       .  S
C157        C162   1.380   1_545  A
C157        C158   1.405       .  A
C157        N163   1.343       .  A
C158        C159   1.403       .  A
C158        H169   1.082       .  S
C159        C168   1.380       .  A
C159        C160   1.384   1_545  A
C160        C161   1.403       .  A
C160        N166   1.342       .  A
C161        C162   1.402       .  A
C161        H170   1.083       .  S
C162        C165   1.375       .  A
N163        C164   1.361       .  A
N163        H173   1.044       .  S
C164        C165   1.405   1_545  A
C165        H171   1.078       .  S
N166        C167   1.355   1_565  A
N166        H174   1.045       .  S
C167        C168   1.395       .  A
C168        H172   1.082       .  S
C175        C180   1.385   1_565  A
C175        C176   1.400       .  A
C175        N181   1.340       .  A
C176        C177   1.399       .  A
C176        H187   1.082       .  S
C177        C186   1.374       .  A
C177        C178   1.381   1_565  A
C178        C179   1.404       .  A
C178        N184   1.341       .  A
C179        C180   1.403       .  A
C179        H188   1.082       .  S
C180        C183   1.379       .  A
N181        C182   1.352   1_565  A
N181        H191   1.045       .  S
C182        C183   1.395       .  A
C183        H189   1.082       .  S
N184        C185   1.361       .  A
N184        H192   1.044       .  S
C185        C186   1.401   1_545  A
C186        H190   1.081       .  S
C193        C198   1.384   1_565  A
C193        C194   1.405       .  A
C193        N199   1.345       .  A
C194        C195   1.405       .  A
C194        H205   1.082       .  S
C195        C204   1.378       .  A
C195        C196   1.380   1_565  A
C196        C197   1.402       .  A
C196        N202   1.340       .  A
C197        C198   1.401       .  A
C197        H206   1.082       .  S
C198        C201   1.376       .  A
N199        C200   1.357   1_565  A
N199        H209   1.044       .  S
C200        C201   1.393       .  A
C201        H207   1.082       .  S
N202        C203   1.359   1_545  A
N202        H210   1.045       .  S
C203        C204   1.406       .  A
C204        H208   1.079       .  S
C211        C216   1.380   1_565  A
C211        C212   1.405       .  A
C211        N217   1.343       .  A
C212        C213   1.403       .  A
C212        H223   1.083       .  S
C213        C222   1.378       .  A
C213        C214   1.384   1_565  A
C214        C215   1.402       .  A
C214        N220   1.343       .  A
C215        C216   1.402       .  A
C215        H224   1.082       .  S
C216        C219   1.374       .  A
N217        C218   1.363       .  A
N217        H227   1.042       .  S
C218        C219   1.403   1_565  A
C219        H225   1.081       .  S
N220        C221   1.354       .  A
N220        H228   1.046       .  S
C221        C222   1.396   1_545  A
C222        H226   1.082       .  S
C229        C234   1.385   1_455  A
C229        C230   1.401       .  A
C229        N235   1.341       .  A
C230        C231   1.400       .  A
C230        H241   1.082       .  S
C231        C240   1.373       .  A
C231        C232   1.379   1_455  A
C232        C233   1.403       .  A
C232        N238   1.341       .  A
C233        C234   1.402       .  A
C233        H242   1.082       .  S
C234        C237   1.378       .  A
N235        C236   1.354   1_455  A
N235        H245   1.044       .  S
C236        C237   1.394       .  A
C237        H243   1.082       .  S
N238        C239   1.361       .  A
N238        H246   1.042       .  S
C239        C240   1.404   1_655  A
C240        H244   1.080       .  S
C247        C252   1.385   1_655  A
C247        C248   1.402       .  A
C247        N253   1.341       .  A
C248        C249   1.401       .  A
C248        H259   1.082       .  S
C249        C258   1.374       .  A
C249        C250   1.380   1_655  A
C250        C251   1.401       .  A
C250        N256   1.338       .  A
C251        C252   1.399       .  A
C251        H260   1.083       .  S
C252        C255   1.375       .  A
N253        C254   1.354       .  A
N253        H263   1.045       .  S
C254        C255   1.393   1_655  A
C255        H261   1.082       .  S
N256        C257   1.362   1_455  A
N256        H264   1.044       .  S
C257        C258   1.403       .  A
C258        H262   1.078       .  S
C265        C270   1.380   1_655  A
C265        C266   1.405       .  A
C265        N271   1.342       .  A
C266        C267   1.403       .  A
C266        H277   1.082       .  S
C267        C276   1.379       .  A
C267        C268   1.385   1_655  A
C268        C269   1.401       .  A
C268        N274   1.340       .  A
C269        C270   1.400       .  A
C269        H278   1.082       .  S
C270        C273   1.374       .  A
N271        C272   1.362   1_655  A
N271        H281   1.044       .  S
C272        C273   1.403       .  A
C273        H279   1.080       .  S
N274        C275   1.353   1_455  A
N274        H282   1.045       .  S
C275        C276   1.395       .  A
C276        H280   1.082       .  S
C283        C288   1.380   1_455  A
C283        C284   1.400       .  A
C283        N289   1.340       .  A
C284        C285   1.399       .  A
C284        H295   1.082       .  S
C285        C294   1.373       .  A
C285        C286   1.385   1_455  A
C286        C287   1.403       .  A
C286        N292   1.343       .  A
C287        C288   1.403       .  A
C287        H296   1.082       .  S
C288        C291   1.374       .  A
N289        C290   1.360   1_455  A
N289        H299   1.040       .  S
C290        C291   1.405       .  A
C291        H297   1.082       .  S
N292        C293   1.355       .  A
N292        H300   1.045       .  S
C293        C294   1.393   1_655  A
C294        H298   1.083       .  S
C301        C306   1.379       .  A
C301        C302   1.403       .  A
C301        N307   1.340       .  A
C302        C303   1.402       .  A
C302        H313   1.082       .  S
C303        C312   1.377       .  A
C303        C304   1.385       .  A
C304        C305   1.401       .  A
C304        N310   1.342       .  A
C305        C306   1.400       .  A
C305        H314   1.082       .  S
C306        C309   1.374       .  A
N307        C308   1.362       .  A
N307        H317   1.043       .  S
C308        C309   1.405       .  A
C309        H315   1.078       .  S
N310        C311   1.354       .  A
N310        H318   1.044       .  S
C311        C312   1.395       .  A
C312        H316   1.082       .  S
C319        C324   1.380       .  A
C319        C320   1.400       .  A
C319        N325   1.340       .  A
C320        C321   1.399       .  A
C320        H331   1.082       .  S
C321        C330   1.373       .  A
C321        C322   1.385       .  A
C322        C323   1.403       .  A
C322        N328   1.345       .  A
C323        C324   1.404       .  A
C323        H332   1.082       .  S
C324        C327   1.374       .  A
N325        C326   1.360       .  A
N325        H335   1.045       .  S
C326        C327   1.404       .  A
C327        H333   1.077       .  S
N328        C329   1.355       .  A
N328        H336   1.044       .  S
C329        C330   1.392       .  A
C330        H334   1.082       .  S
C337        C342   1.384       .  A
C337        C338   1.405       .  A
C337        N343   1.347       .  A
C338        C339   1.405       .  A
C338        H349   1.082       .  S
C339        C348   1.376       .  A
C339        C340   1.380       .  A
C340        C341   1.402       .  A
C340        N346   1.343       .  A
C341        C342   1.402       .  A
C341        H350   1.082       .  S
C342        C345   1.375       .  A
N343        C344   1.356       .  A
N343        H353   1.045       .  S
C344        C345   1.395       .  A
C345        H351   1.082       .  S
N346        C347   1.362       .  A
N346        H354   1.040       .  S
C347        C348   1.405       .  A
C348        H352   1.080       .  S
C355        C360   1.385       .  A
C355        C356   1.403       .  A
C355        N361   1.343       .  A
C356        C357   1.403       .  A
C356        H367   1.082       .  S
C357        C366   1.375       .  A
C357        C358   1.380       .  A
C358        C359   1.401       .  A
C358        N364   1.340       .  A
C359        C360   1.400       .  A
C359        H368   1.082       .  S
C360        C363   1.375       .  A
N361        C362   1.356       .  A
N361        H371   1.044       .  S
C362        C363   1.393       .  A
C363        H369   1.082       .  S
N364        C365   1.359       .  A
N364        H372   1.041       .  S
C365        C366   1.406       .  A
C366        H370   1.080       .  S
O373        V381   1.900       .  S
O373        C383   1.263       .  A
O374        C384   1.264       .  A
O375        V381   1.907       .  S
O375        C385   1.266       .  A
O376        C386   1.263       .  A
O377        V382   1.893   1_556  S
O377        C386   1.263       .  A
O378        C385   1.260       .  A
O379        V382   1.895   1_556  S
O379        C384   1.263       .  A
O380        C383   1.263       .  A
C383        C734   1.464       .  S
C384        C701   1.466       .  S
C385        C683   1.462       .  S
C386        C716   1.462       .  S
O387        V395   1.888       .  S
O387        C397   1.262   1_455  A
O388        C398   1.262   1_455  A
O389        V395   1.896       .  S
O389        C399   1.263   1_455  A
O390        C400   1.263   1_455  A
O391        V396   1.896       .  S
O391        C400   1.263       .  A
O392        C399   1.264       .  A
O393        V396   1.897       .  S
O393        C398   1.263       .  A
O394        C397   1.264       .  A
C397        C626   1.466       .  S
C398        C665   1.463       .  S
C399        C647   1.468       .  S
C400        C608   1.460       .  S
O401        V409   1.904       .  S
O401        C411   1.265       .  A
O402        C412   1.265       .  A
O403        V409   1.896       .  S
O403        C413   1.262       .  A
O404        C414   1.264       .  A
O405        V410   1.893       .  S
O405        C414   1.263   1_565  A
O406        C413   1.263   1_565  A
O407        V410   1.892       .  S
O407        C412   1.261   1_565  A
O408        C411   1.263   1_565  A
C411        C539   1.471       .  S
C412        C572   1.463       .  S
C413        C593   1.460       .  S
C414        C554   1.468       .  S
C415        C500   1.536   1_655  S
C415        C518   1.530       .  S
C415        C611   1.536       .  S
C415        C629   1.534       .  S
C416        C467   1.536       .  S
C416        C482   1.528   1_455  S
C416        C644   1.538   1_455  S
C416        C662   1.538       .  S
C417        C446   1.530       .  S
C417        C464   1.537       .  S
C417        C719   1.534       .  S
C417        C737   1.533       .  S
C418        C449   1.525   1_565  S
C418        C503   1.539       .  S
C418        C575   1.534       .  S
C418        C590   1.531   1_565  S
C419        C428   1.537   1_545  S
C419        C485   1.526       .  S
C419        C536   1.535       .  S
C419        C557   1.535       .  S
C420        C431   1.538       .  S
C420        C521   1.530       .  S
C420        C680   1.538       .  S
C420        C698   1.539       .  S
C421        C426   1.381       .  A
C421        C422   1.399       .  A
C421        N427   1.339       .  A
C422        C423   1.399       .  A
C422        H433   1.082       .  S
C423        C432   1.369       .  A
C423        C424   1.381       .  A
C424        C425   1.405       .  A
C424        N430   1.346       .  A
C425        C426   1.405       .  A
C425        H434   1.082       .  S
C426        C429   1.378       .  A
N427        C428   1.358       .  A
N427        H437   1.045       .  S
C428        C429   1.406       .  A
C429        H435   1.082       .  S
N430        C431   1.362       .  A
N430        H438   1.044       .  S
C431        C432   1.401       .  A
C432        H436   1.083       .  S
C439        C444   1.383       .  A
C439        C440   1.402       .  A
C439        N445   1.341       .  A
C440        C441   1.400       .  A
C440        H451   1.082       .  S
C441        C450   1.373       .  A
C441        C442   1.383       .  A
C442        C443   1.403       .  A
C442        N448   1.342       .  A
C443        C444   1.402       .  A
C443        H452   1.082       .  S
C444        C447   1.376       .  A
N445        C446   1.360       .  A
N445        H455   1.043       .  S
C446        C447   1.400       .  A
C447        H453   1.082       .  S
N448        C449   1.358       .  A
N448        H456   1.044       .  S
C449        C450   1.401       .  A
C450        H454   1.082       .  S
C457        C462   1.381       .  A
C457        C458   1.402       .  A
C457        N463   1.339       .  A
C458        C459   1.400       .  A
C458        H469   1.082       .  S
C459        C468   1.374       .  A
C459        C460   1.381       .  A
C460        C461   1.406       .  A
C460        N466   1.344       .  A
C461        C462   1.405       .  A
C461        H470   1.082       .  S
C462        C465   1.381       .  A
N463        C464   1.360       .  A
N463        H473   1.047       .  S
C464        C465   1.404       .  A
C465        H471   1.082       .  S
N466        C467   1.362       .  A
N466        H474   1.043       .  S
C467        C468   1.401       .  A
C468        H472   1.083       .  S
C475        C480   1.383       .  A
C475        C476   1.404       .  A
C475        N481   1.343       .  A
C476        C477   1.403       .  A
C476        H487   1.082       .  S
C477        C486   1.377       .  A
C477        C478   1.383       .  A
C478        C479   1.401       .  A
C478        N484   1.341       .  A
C479        C480   1.400       .  A
C479        H488   1.083       .  S
C480        C483   1.372       .  A
N481        C482   1.359       .  A
N481        H491   1.045       .  S
C482        C483   1.401       .  A
C483        H489   1.082       .  S
N484        C485   1.358       .  A
N484        H492   1.044       .  S
C485        C486   1.401       .  A
C486        H490   1.082       .  S
C493        C498   1.381       .  A
C493        C494   1.403       .  A
C493        N499   1.338       .  A
C494        C495   1.400       .  A
C494        H505   1.083       .  S
C495        C504   1.376       .  A
C495        C496   1.380       .  A
C496        C497   1.406       .  A
C496        N502   1.342       .  A
C497        C498   1.403       .  A
C497        H506   1.082       .  S
C498        C501   1.383       .  A
N499        C500   1.361       .  A
N499        H509   1.045       .  S
C500        C501   1.402       .  A
C501        H507   1.082       .  S
N502        C503   1.363       .  A
N502        H510   1.045       .  S
C503        C504   1.402       .  A
C504        H508   1.083       .  S
C511        C516   1.382       .  A
C511        C512   1.408       .  A
C511        N517   1.347       .  A
C512        C513   1.408       .  A
C512        H523   1.082       .  S
C513        C522   1.382       .  A
C513        C514   1.383       .  A
C514        C515   1.400       .  A
C514        N520   1.340       .  A
C515        C516   1.399       .  A
C515        H524   1.083       .  S
C516        C519   1.372       .  A
N517        C518   1.361       .  A
N517        H527   1.045       .  S
C518        C519   1.400       .  A
C519        H525   1.082       .  S
N520        C521   1.359       .  A
N520        H528   1.044       .  S
C521        C522   1.403       .  A
C522        H526   1.082       .  S
C529        C534   1.380   1_545  A
C529        C530   1.404       .  A
C529        N535   1.343       .  A
C530        C531   1.403       .  A
C530        H541   1.082       .  S
C531        C540   1.379       .  A
C531        C532   1.384   1_545  A
C532        C533   1.404       .  A
C532        N538   1.344       .  A
C533        C534   1.403       .  A
C533        H542   1.082       .  S
C534        C537   1.376       .  A
N535        C536   1.361       .  A
N535        H545   1.040       .  S
C536        C537   1.405   1_545  A
C537        H543   1.080       .  S
N538        C539   1.356   1_565  A
N538        H546   1.044       .  S
C539        C540   1.395       .  A
C540        H544   1.082       .  S
C547        C552   1.385   1_565  A
C547        C548   1.398       .  A
C547        N553   1.338       .  A
C548        C549   1.397       .  A
C548        H559   1.082       .  S
C549        C558   1.370       .  A
C549        C550   1.379   1_565  A
C550        C551   1.408       .  A
C550        N556   1.344       .  A
C551        C552   1.407       .  A
C551        H560   1.082       .  S
C552        C555   1.384       .  A
N553        C554   1.352   1_565  A
N553        H563   1.045       .  S
C554        C555   1.398       .  A
C555        H561   1.082       .  S
N556        C557   1.363       .  A
N556        H564   1.043       .  S
C557        C558   1.402   1_545  A
C558        H562   1.078       .  S
C565        C570   1.385   1_565  A
C565        C566   1.404       .  A
C565        N571   1.341       .  A
C566        C567   1.402       .  A
C566        H577   1.082       .  S
C567        C576   1.378       .  A
C567        C568   1.380   1_565  A
C568        C569   1.400       .  A
C568        N574   1.336       .  A
C569        C570   1.398       .  A
C569        H578   1.082       .  S
C570        C573   1.375       .  A
N571        C572   1.355   1_565  A
N571        H581   1.045       .  S
C572        C573   1.392       .  A
C573        H579   1.082       .  S
N574        C575   1.359   1_545  A
N574        H582   1.045       .  S
C575        C576   1.405       .  A
C576        H580   1.079       .  S
C583        C588   1.381   1_565  A
C583        C584   1.398       .  A
C583        N589   1.338       .  A
C584        C585   1.396       .  A
C584        H595   1.082       .  S
C585        C594   1.371       .  A
C585        C586   1.385   1_565  A
C586        C587   1.403       .  A
C586        N592   1.343       .  A
C587        C588   1.403       .  A
C587        H596   1.082       .  S
C588        C591   1.374       .  A
N589        C590   1.359   1_565  A
N589        H599   1.043       .  S
C590        C591   1.405       .  A
C591        H597   1.080       .  S
N592        C593   1.355       .  A
N592        H600   1.045       .  S
C593        C594   1.390   1_545  A
C594        H598   1.083       .  S
C601        C606   1.385   1_455  A
C601        C602   1.398       .  A
C601        N607   1.339       .  A
C602        C603   1.397       .  A
C602        H613   1.083       .  S
C603        C612   1.368       .  A
C603        C604   1.380   1_455  A
C604        C605   1.402       .  A
C604        N610   1.341       .  A
C605        C606   1.402       .  A
C605        H614   1.082       .  S
C606        C609   1.376       .  A
N607        C608   1.352   1_455  A
N607        H617   1.045       .  S
C608        C609   1.394       .  A
C609        H615   1.082       .  S
N610        C611   1.361       .  A
N610        H618   1.042       .  S
C611        C612   1.404   1_655  A
C612        H616   1.080       .  S
C619        C624   1.384   1_655  A
C619        C620   1.407       .  A
C619        N625   1.347       .  A
C620        C621   1.407       .  A
C620        H631   1.082       .  S
C621        C630   1.379       .  A
C621        C622   1.381   1_655  A
C622        C623   1.397       .  A
C622        N628   1.337       .  A
C623        C624   1.395       .  A
C623        H632   1.083       .  S
C624        C627   1.368       .  A
N625        C626   1.357       .  A
N625        H635   1.044       .  S
C626        C627   1.390   1_655  A
C627        H633   1.083       .  S
N628        C629   1.359   1_455  A
N628        H636   1.042       .  S
C629        C630   1.406       .  A
C630        H634   1.081       .  S
C637        C642   1.379   1_655  A
C637        C638   1.405       .  A
C637        N643   1.342       .  A
C638        C639   1.404       .  A
C638        H649   1.082       .  S
C639        C648   1.380       .  A
C639        C640   1.385   1_655  A
C640        C641   1.401       .  A
C640        N646   1.341       .  A
C641        C642   1.400       .  A
C641        H650   1.082       .  S
C642        C645   1.374       .  A
N643        C644   1.362       .  A
N643        H653   1.040       .  S
C644        C645   1.404   1_655  A
C645        H651   1.078       .  S
N646        C647   1.354   1_455  A
N646        H654   1.046       .  S
C647        C648   1.396       .  A
C648        H652   1.082       .  S
C655        C660   1.380   1_455  A
C655        C656   1.405       .  A
C655        N661   1.345       .  A
C656        C657   1.404       .  A
C656        H667   1.082       .  S
C657        C666   1.378       .  A
C657        C658   1.385   1_455  A
C658        C659   1.398       .  A
C658        N664   1.340       .  A
C659        C660   1.398       .  A
C659        H668   1.083       .  S
C660        C663   1.367       .  A
N661        C662   1.363       .  A
N661        H671   1.043       .  S
C662        C663   1.402   1_455  A
C663        H669   1.078       .  S
N664        C665   1.353       .  A
N664        H672   1.044       .  S
C665        C666   1.395   1_655  A
C666        H670   1.082       .  S
C673        C678   1.379       .  A
C673        C674   1.403       .  A
C673        N679   1.340       .  A
C674        C675   1.401       .  A
C674        H685   1.082       .  S
C675        C684   1.379       .  A
C675        C676   1.385       .  A
C676        C677   1.400       .  A
C676        N682   1.338       .  A
C677        C678   1.399       .  A
C677        H686   1.083       .  S
C678        C681   1.372       .  A
N679        C680   1.362       .  A
N679        H689   1.038       .  S
C680        C681   1.405       .  A
C681        H687   1.079       .  S
N682        C683   1.354       .  A
N682        H690   1.043       .  S
C683        C684   1.394       .  A
C684        H688   1.082       .  S
C691        C696   1.379       .  A
C691        C692   1.400       .  A
C691        N697   1.338       .  A
C692        C693   1.398       .  A
C692        H703   1.082       .  S
C693        C702   1.374       .  A
C693        C694   1.384       .  A
C694        C695   1.405       .  A
C694        N700   1.344       .  A
C695        C696   1.404       .  A
C695        H704   1.082       .  S
C696        C699   1.376       .  A
N697        C698   1.361       .  A
N697        H707   1.042       .  S
C698        C699   1.405       .  A
C699        H705   1.079       .  S
N700        C701   1.356       .  A
N700        H708   1.045       .  S
C701        C702   1.392       .  A
C702        H706   1.082       .  S
C709        C714   1.385       .  A
C709        C710   1.402       .  A
C709        N715   1.342       .  A
C710        C711   1.401       .  A
C710        H721   1.082       .  S
C711        C720   1.371       .  A
C711        C712   1.380       .  A
C712        C713   1.400       .  A
C712        N718   1.340       .  A
C713        C714   1.399       .  A
C713        H722   1.082       .  S
C714        C717   1.373       .  A
N715        C716   1.354       .  A
N715        H725   1.045       .  S
C716        C717   1.392       .  A
C717        H723   1.082       .  S
N718        C719   1.361       .  A
N718        H726   1.040       .  S
C719        C720   1.404       .  A
C720        H724   1.080       .  S
C727        C732   1.385       .  A
C727        C728   1.398       .  A
C727        N733   1.339       .  A
C728        C729   1.397       .  A
C728        H739   1.082       .  S
C729        C738   1.368       .  A
C729        C730   1.379       .  A
C730        C731   1.404       .  A
C730        N736   1.342       .  A
C731        C732   1.404       .  A
C731        H740   1.082       .  S
C732        C735   1.379       .  A
N733        C734   1.352       .  A
N733        H743   1.044       .  S
C734        C735   1.396       .  A
C735        H741   1.082       .  S
N736        C737   1.361       .  A
N736        H744   1.044       .  S
C737        C738   1.402       .  A
C738        H742   1.079       .  S
