geometry optimzed in LAMMPS
_audit_creation_date              2020-11-30 
_audit_creation_method            'lammps2cif' 
_symmetry_space_group_name_H-M    'P1' 
_symmetry_Int_Tables_number       1 
_symmetry_cell_setting            triclinic 
loop_ 
_symmetry_equiv_pos_as_xyz 
  x,y,z 
_cell_length_a                    37.97142793 
_cell_length_b                    38.12824759996194 
_cell_length_c                    37.890736635687844 
_cell_angle_alpha                 90.12992123276379 
_cell_angle_beta                  90.1530493098418 
_cell_angle_gamma                 89.77686070746678 
loop_ 
_atom_site_label 
_atom_site_type_symbol 
_atom_site_fract_x 
_atom_site_fract_y 
_atom_site_fract_z 
_atom_site_charge 
O1          O  0.18680753  0.77760377  0.52415850    -0.76900
C2          C  0.17388900  0.71356598  0.43568135     0.84200
O3          O  0.22612226  0.64996970  0.52217874    -0.78000
O4          O  0.28738010  0.70495727  0.42162528    -0.79500
O5          O  0.29446530  0.79863699  0.49144576    -0.79300
O6          O  0.23644009  0.79354123  0.55140348    -0.77900
Zn7        Zn  0.19974960  0.72881476  0.50882467     1.55700
O8          O  0.26799931  0.78952071  0.43920931    -0.79300
Cd9        Cd  0.27247129  0.76273414  0.52438535     1.59700
Cd10       Cd  0.26562415  0.68131559  0.50408067     1.59600
O11         O  0.31234687  0.73911990  0.55446629    -0.79300
O12         O  0.24741655  0.72808217  0.49508088    -1.89800
Cd13       Cd  0.24996762  0.73811081  0.44401186     1.59900
O14         O  0.30544817  0.68287430  0.53978584    -0.79200
O15         O  0.20140896  0.72512435  0.42023829    -0.77900
C16         C  0.19882505  0.65850498  0.53967884     0.84700
C17         C  0.20443632  0.79923469  0.54270491     0.84300
O18         O  0.17071705  0.71450623  0.46888914    -0.76800
C19         C  0.28756283  0.80770550  0.45986504     0.85100
O20         O  0.18869599  0.69032196  0.54296372    -0.76900
C21         C  0.32192148  0.70697584  0.55598595     0.85200
C22         C  0.29932461  0.67536992  0.43189334     0.85600
O23         O  0.29050062  0.66160875  0.46104314    -0.79400
O24         O  0.82295036  0.71496014  0.96542548    -0.76900
C25         C  0.78865303  0.80009865  0.04069426     0.84200
O26         O  0.77039658  0.64959864  0.02093107    -0.78000
O27         O  0.68337371  0.73689646  0.05432416    -0.79500
O28         O  0.72215334  0.78770566  0.93876685    -0.79300
O29         O  0.78967404  0.72375518  0.91782524    -0.77900
Zn30       Zn  0.79488371  0.72926138  0.00633317     1.55700
O31         O  0.69704395  0.79619937  0.99166335    -0.79300
Cd32       Cd  0.74170494  0.73661152  0.94286474     1.59700
Cd33       Cd  0.72986922  0.67977821  0.00270695     1.59600
O34         O  0.70426657  0.70294977  0.92150912    -0.79300
O35         O  0.74672027  0.72697928  0.99374691    -1.89800
Cd36       Cd  0.72165924  0.76111223  0.02372641     1.59900
O37         O  0.70491902  0.65883845  0.96007561    -0.79200
O38         O  0.75710485  0.79323774  0.04986425    -0.77900
C39         C  0.79798534  0.65872910  0.03767885     0.84700
C40         C  0.81820050  0.71305279  0.93238788     0.84300
O41         O  0.80671962  0.77895758  0.02179328    -0.76800
C42         C  0.70273441  0.80546036  0.95998075     0.85100
O43         O  0.80774090  0.69069011  0.04016751    -0.76900
C44         C  0.69421793  0.67270588  0.93151702     0.85200
C45         C  0.67393855  0.70480970  0.05505220     0.85600
O46         O  0.69030040  0.68093008  0.03833554    -0.79400
O47         O  0.19806481  0.54134168  0.16906263    -0.76900
C48         C  0.28442267  0.46904953  0.20368396     0.84200
O49         O  0.13263260  0.48813539  0.22749247    -0.78000
O50         O  0.22422607  0.45361671  0.31037930    -0.79500
O51         O  0.27279764  0.57089200  0.26846396    -0.79300
O52         O  0.20922867  0.58927775  0.20054071    -0.77900
Zn53       Zn  0.21194135  0.50133894  0.19891548     1.55700
O54         O  0.28141447  0.51989523  0.29671134    -0.79300
Cd55       Cd  0.22159302  0.56551843  0.24943693     1.59700
Cd56       Cd  0.16537431  0.50529218  0.26669354     1.59600
O57         O  0.18884471  0.58789794  0.28706899    -0.79300
O58         O  0.21178123  0.51469740  0.24703851    -1.89800
Cd59       Cd  0.24730984  0.48624310  0.27234417     1.59900
O60         O  0.14709982  0.54747758  0.29422480    -0.79200
O61         O  0.28019314  0.46185991  0.23625925    -0.77900
C62         C  0.14078946  0.47057741  0.20006414     0.84700
C63         C  0.19795175  0.57441122  0.17239956     0.84300
O64         O  0.26111682  0.48536439  0.18573862    -0.76800
C65         C  0.29044989  0.55119374  0.28944667     0.85100
O66         O  0.17249806  0.46778409  0.18910796    -0.76900
C67         C  0.16056658  0.57712640  0.30140331     0.85200
C68         C  0.19206908  0.45106961  0.31998044     0.85600
O69         O  0.16752004  0.46784658  0.30462525    -0.79400
O70         O  0.53552222  0.18761215  0.20880037    -0.76900
C71         C  0.46198198  0.22098657  0.29682865     0.84200
O72         O  0.46028505  0.22426047  0.15134672    -0.78000
O73         O  0.44065786  0.32376247  0.22763065    -0.79500
O74         O  0.55909434  0.29347564  0.26821740    -0.79300
O75         O  0.57726810  0.22804450  0.20223862    -0.77900
Zn76       Zn  0.49413058  0.21222315  0.22769547     1.55700
O77         O  0.50522449  0.30972731  0.28624654    -0.79300
Cd78       Cd  0.54882519  0.27304731  0.21821453     1.59700
Cd79       Cd  0.48270260  0.26892853  0.17050055     1.59600
O80         O  0.55515720  0.31144356  0.17946992    -0.79300
O81         O  0.49911270  0.26008544  0.21792402    -1.89800
Cd82       Cd  0.47111621  0.28537609  0.25273411     1.59900
O83         O  0.52305669  0.28393675  0.13890103    -0.79200
O84         O  0.44724787  0.24916852  0.28579750    -0.77900
C85         C  0.45008577  0.19637888  0.16670187     0.84700
C86         C  0.56582139  0.19671713  0.19829785     0.84300
O87         O  0.48600079  0.20543507  0.27928013    -0.76800
C88         C  0.53847181  0.30850749  0.29033246     0.85100
O89         O  0.45553258  0.19081274  0.19932954    -0.76900
C90         C  0.54496865  0.30750612  0.14756598     0.85200
C91         C  0.43778443  0.33151285  0.19490810     0.85600
O92         O  0.45075117  0.31232644  0.17061003    -0.79400
O93         O  0.32782913  0.20942320  0.47521782    -0.76900
C94         C  0.29632880  0.30003119  0.54418397     0.84200
O95         O  0.27652136  0.15793877  0.55867317    -0.78000
O96         O  0.18898502  0.23800689  0.56510375    -0.79500
O97         O  0.22100569  0.27462120  0.44690355    -0.79300
O98         O  0.29019061  0.21295584  0.43004947    -0.77900
Zn99       Zn  0.30289102  0.22819431  0.51633456     1.55700
O100        O  0.20533746  0.29380150  0.50050205    -0.79300
Cd101      Cd  0.24371830  0.22563351  0.45752531     1.59700
Cd102      Cd  0.24069576  0.17768418  0.52392209     1.59600
O103        O  0.20773765  0.18557044  0.44755682    -0.79300
O104        O  0.25442465  0.22371344  0.50807382    -1.89800
Cd105      Cd  0.22932993  0.26006495  0.53489066     1.59900
O106        O  0.23189377  0.14502188  0.48232573    -0.79200
O107        O  0.26665898  0.29226722  0.55799284    -0.77900
C108        C  0.30615662  0.16966425  0.56877866     0.84700
C109        C  0.32031493  0.20477192  0.44291394     0.84300
O110        O  0.31275804  0.27911766  0.52373330    -0.76800
C111        C  0.20593498  0.29706241  0.46713311     0.85100
O112        O  0.31930299  0.19787192  0.55668745    -0.76900
C113        C  0.21084900  0.15378555  0.45776275     0.85200
C114        C  0.17682049  0.20682850  0.56306701     0.85600
O115        O  0.19331230  0.18222445  0.54755942    -0.79400
O116        O  0.76301187  0.53622834  0.18496445    -0.76900
C117        C  0.69855698  0.44760375  0.17583209     0.84200
O118        O  0.63557061  0.53979859  0.22733537    -0.78000
O119        O  0.69077559  0.43834068  0.28961908    -0.79500
O120        O  0.78575504  0.50554694  0.29516265    -0.79300
O121        O  0.78071119  0.56346105  0.23417414    -0.77900
Zn122      Zn  0.71400586  0.52147883  0.19879471     1.55700
O123        O  0.77504653  0.45288352  0.27108877    -0.79300
Cd124      Cd  0.75001506  0.53840029  0.27157277     1.59700
Cd125      Cd  0.66749729  0.51958433  0.26594570     1.59600
O126        O  0.72743495  0.56920026  0.31161424    -0.79300
O127        O  0.71420031  0.50953778  0.24724654    -1.89800
Cd128      Cd  0.72393762  0.45877583  0.25163394     1.59900
O129        O  0.67101687  0.55385007  0.30663319    -0.79200
O130        O  0.71061937  0.43342649  0.20396538    -0.77900
C131        C  0.64377164  0.55548809  0.19890920     0.84700
C132        C  0.78543311  0.55444805  0.20203471     0.84300
O133        O  0.69913608  0.48049287  0.17127596    -0.76800
C134        C  0.79367371  0.47343614  0.29027777     0.85100
O135        O  0.67523922  0.55576929  0.18706807    -0.76900
C136        C  0.69561013  0.56993609  0.32254308     0.85200
C137        C  0.66095730  0.44876423  0.30094420     0.85600
O138        O  0.64680803  0.47733834  0.29096851    -0.79400
O139        O  0.00808760  0.32049227  0.22623476    -0.76900
C140        C  0.92919434  0.32496591  0.31000841     0.84200
O141        O  0.03637376  0.30207622  0.35490118    -0.78000
O142        O  0.94628850  0.20741471  0.32690645    -0.79500
O143        O  0.99167895  0.21482314  0.21934100    -0.79300
O144        O  0.04801231  0.27797633  0.21951515    -0.77900
Zn145      Zn  0.00063863  0.31229101  0.27816798     1.55700
O146        O  0.93744862  0.22858019  0.23861005    -0.79300
Cd147      Cd  0.02534791  0.24048999  0.25277251     1.59700
Cd148      Cd  0.01435761  0.25676842  0.33617042     1.59600
O149        O  0.05748271  0.20355318  0.27823303    -0.79300
O150        O  0.99677029  0.26430472  0.28831059    -1.89800
Cd151      Cd  0.94697288  0.24864095  0.28959322     1.59900
O152        O  0.04843008  0.21487302  0.33554061    -0.79200
O153        O  0.91836316  0.29318220  0.30753465    -0.77900
C154        C  0.04615380  0.32973244  0.33883005     0.84700
C155        C  0.03281543  0.30605902  0.20870051     0.84300
O156        O  0.95863465  0.33466613  0.29770637    -0.76800
C157        C  0.95831820  0.21474436  0.21577166     0.85100
O158        O  0.03917455  0.33492966  0.30639004    -0.76900
C159        C  0.06165573  0.19619788  0.31095833     0.85200
C160        C  0.96085920  0.21126347  0.35705669     0.85600
O161        O  0.97228604  0.24123739  0.36589023    -0.79400
O162        O  0.81000853  0.05215225  0.32266145    -0.76900
C163        C  0.71165016  0.99275997  0.31076110     0.84200
O164        O  0.84985071  0.96011976  0.27582051    -0.78000
O165        O  0.76253777  0.95286625  0.19563719    -0.79500
O166        O  0.73551196  0.07466962  0.21778166    -0.79300
O167        O  0.80289344  0.09442690  0.28274884    -0.77900
Zn168      Zn  0.78697922  0.01064346  0.30455956     1.55700
O169        O  0.71298176  0.02127532  0.20856238    -0.79300
Cd170      Cd  0.78513300  0.06326835  0.23987033     1.59700
Cd171      Cd  0.82895819  0.99402878  0.23996597     1.59600
O172        O  0.82355224  0.06701552  0.20086847    -0.79300
O173        O  0.78486142  0.01402893  0.25533180    -1.89800
Cd174      Cd  0.74435284  0.98772070  0.23632205     1.59900
O175        O  0.86351997  0.03176425  0.22541518    -0.79200
O176        O  0.71086826  0.97783757  0.28017731    -0.77900
C177        C  0.84116357  0.95442073  0.30761325     0.84700
C178        C  0.81434866  0.08347846  0.31263284     0.84300
O179        O  0.73887287  0.00814862  0.32240344    -0.76800
C180        C  0.71166352  0.05437369  0.20522423     0.85100
O181        O  0.81604710  0.97072293  0.32252904    -0.76900
C182        C  0.85497904  0.05514931  0.20315320     0.85200
C183        C  0.79292099  0.95374717  0.18064902     0.85600
O184        O  0.81902954  0.96880361  0.19490503    -0.79400
O185        O  0.68878214  0.74761031  0.47614366    -0.76900
C186        C  0.67962480  0.81357120  0.56339980     0.84200
O187        O  0.72964040  0.87491679  0.46979839    -0.78000
O188        O  0.79226725  0.82271614  0.57458209    -0.79500
O189        O  0.79843512  0.72598493  0.50601315    -0.79300
O190        O  0.73742020  0.73066458  0.44773057    -0.77900
Zn191      Zn  0.70259070  0.79690561  0.48965262     1.55700
O192        O  0.77552655  0.73732956  0.55932229    -0.79300
Cd193      Cd  0.77495245  0.76175651  0.47315233     1.59700
Cd194      Cd  0.76823786  0.84448481  0.49260357     1.59600
O195        O  0.81530215  0.78496942  0.44338814    -0.79300
O196        O  0.75077669  0.79747077  0.50235370    -1.89800
Cd197      Cd  0.75544018  0.78827302  0.55351448     1.59900
O198        O  0.81004818  0.84095631  0.46001437    -0.79200
O199        O  0.70738317  0.80132794  0.57821917    -0.77900
C200        C  0.70156235  0.86585418  0.45376278     0.84700
C201        C  0.70563528  0.72538349  0.45746826     0.84300
O202        O  0.67545158  0.81275697  0.53026692    -0.76800
C203        C  0.79398070  0.71828527  0.53835714     0.85100
O204        O  0.69026734  0.83434653  0.45417655    -0.76900
C205        C  0.82627165  0.81668009  0.44377855     0.85200
C206        C  0.80187128  0.85311955  0.56458818     0.85600
O207        O  0.79126628  0.86674204  0.53584492    -0.79400
C208        C  0.95117428  0.86895454  0.36920414     0.88100
C209        C  0.97399354  0.89329656  0.39231365    -0.52100
C210        C  0.95439917  0.91443335  0.41434199     0.11000
C211        C  0.91409080  0.90884815  0.41097198     0.22000
C212        C  0.92837925  0.84853902  0.39530506    -0.52800
C213        C  0.90783352  0.86924751  0.41613802     0.11200
C214        C  0.92613274  0.89392526  0.35015755    -0.52400
C215        C  0.90589685  0.91408030  0.37174171     0.11700
H216        H  0.00251956  0.89428093  0.39092311     0.16200
H217        H  0.89799702  0.92582626  0.42858420     0.02000
H218        H  0.92679007  0.82012412  0.39516841     0.16500
H219        H  0.92460781  0.89503867  0.32155406     0.16300
C220        C  0.87373482  0.15719469  0.43560215     0.88100
C221        C  0.85256199  0.13683347  0.40820832    -0.52100
C222        C  0.87169506  0.11277146  0.39009143     0.11000
C223        C  0.91030876  0.10976049  0.40230882     0.22000
C224        C  0.89021824  0.12880283  0.46012597    -0.52800
C225        C  0.90998494  0.10388328  0.44275915     0.11200
C226        C  0.90539919  0.17220802  0.41524618    -0.52400
C227        C  0.92472850  0.14709833  0.39799193     0.11700
H228        H  0.82482995  0.14170410  0.40292355     0.16200
H229        H  0.92565242  0.08976904  0.38742587     0.02000
H230        H  0.88796512  0.12958735  0.48867254     0.16500
H231        H  0.91361240  0.19937515  0.41737684     0.16300
C232        C  0.86976162  0.96431179  0.64355620     0.88100
C233        C  0.89504022  0.93897113  0.66206981    -0.52100
C234        C  0.91354029  0.91800561  0.63960001     0.11000
C235        C  0.90698040  0.92624580  0.60025507     0.22000
C236        C  0.89328503  0.98632507  0.61890020    -0.52800
C237        C  0.91313752  0.96634651  0.59596821     0.11200
C238        C  0.84785987  0.94161743  0.61858186    -0.52400
C239        C  0.86707446  0.92135741  0.59637198     0.11700
H240        H  0.89619402  0.93645306  0.69057395     0.16200
H241        H  0.92238763  0.90936314  0.58198718     0.02000
H242        H  0.89400547  0.01481130  0.61945002     0.16500
H243        H  0.81923099  0.94078430  0.61920815     0.16300
C244        C  0.13478613  0.06570922  0.35720634     0.88100
C245        C  0.10837019  0.04406995  0.37885484    -0.52100
C246        C  0.08948496  0.06393237  0.40258377     0.11000
C247        C  0.09899529  0.10360012  0.40179872     0.22000
C248        C  0.11267831  0.09443184  0.33977294    -0.52800
C249        C  0.09484101  0.11526538  0.36294077     0.11200
C250        C  0.15732204  0.08432832  0.38485912    -0.52400
C251        C  0.13898520  0.10474345  0.40780421     0.11700
H252        H  0.10585537  0.01579551  0.37669862     0.16200
H253        H  0.08398325  0.11999101  0.42086097     0.02000
H254        H  0.11302899  0.09855444  0.31149200     0.16500
H255        H  0.18590452  0.08361979  0.38403340     0.16300
C256        C  0.05423549  0.15132656  0.63724995     0.88100
C257        C  0.07533745  0.17351536  0.61120672    -0.52100
C258        C  0.09534642  0.15427692  0.58852258     0.11000
C259        C  0.09048448  0.11440880  0.59221466     0.22000
C260        C  0.03103973  0.12750213  0.61375243    -0.52800
C261        C  0.05016301  0.10798816  0.58976501     0.11200
C262        C  0.08082888  0.12632419  0.65411389    -0.52400
C263        C  0.10043589  0.10759849  0.63078814     0.11700
H264        H  0.07626284  0.20193301  0.61259874     0.16200
H265        H  0.10666640  0.09890394  0.57337668     0.02000
H266        H  0.00259608  0.12606858  0.61602194     0.16500
H267        H  0.08433685  0.12430261  0.68252518     0.16300
C268        C  0.14384789  0.87918094  0.55352167     0.88100
C269        C  0.12225024  0.90538862  0.53104065    -0.52100
C270        C  0.10069501  0.92691973  0.55081254     0.11000
C271        C  0.10319663  0.91995610  0.59112863     0.22000
C272        C  0.16381448  0.90184172  0.58022150    -0.52800
C273        C  0.14270141  0.92228682  0.60066862     0.11200
C274        C  0.11630630  0.85973499  0.57498172    -0.52400
C275        C  0.09557337  0.88067905  0.59508573     0.11700
H276        H  0.12281388  0.90587316  0.50240566     0.16200
H277        H  0.08594303  0.93689935  0.60762454     0.02000
H278        H  0.19211988  0.90014826  0.58423099     0.16500
H279        H  0.11449759  0.83127093  0.57568523     0.16300
O280        O  0.03481955  0.03797900  0.42031035    -0.76900
C281        C  0.96978200  0.94159741  0.43791509     0.84200
O282        O  0.93692356  0.07652083  0.49437713    -0.78000
O283        O  0.95752850  0.95940967  0.55224346    -0.79500
O284        O  0.08281806  0.98196716  0.52560760    -0.79300
O285        O  0.07634201  0.04599828  0.46129066    -0.77900
Zn286      Zn  0.99126140  0.01972885  0.44759718     1.55700
O287        O  0.04213999  0.94044014  0.53220574    -0.79300
Cd288      Cd  0.05328975  0.02550707  0.50709402     1.59700
Cd289      Cd  0.96998094  0.04540716  0.52827827     1.59600
O290        O  0.05651920  0.06408197  0.54578781    -0.79300
O291        O  0.00202990  0.01380637  0.49842558    -1.89800
Cd292      Cd  0.99538017  0.96310842  0.51262676     1.59900
O293        O  0.00148412  0.07888957  0.56050250    -0.79200
O294        O  0.97710551  0.93345307  0.46977329    -0.77900
C295        C  0.93391809  0.07747193  0.46058561     0.84700
C296        C  0.06556432  0.04832615  0.42940698     0.84300
O297        O  0.97403527  0.97278444  0.42625050    -0.76800
C298        C  0.07389909  0.95107105  0.53507605     0.85100
O299        O  0.95237749  0.05710914  0.44104674    -0.76900
C300        C  0.03492044  0.08233090  0.56400611     0.85200
C301        C  0.93783181  0.98097443  0.56893178     0.85600
O302        O  0.93888084  0.01406301  0.56278905    -0.79400
O303        O  0.67604265  0.31095706  0.46499383    -0.76900
C304        C  0.70878109  0.21832473  0.53265003     0.84200
O305        O  0.72135240  0.36176735  0.55100334    -0.78000
O306        O  0.81417356  0.28291918  0.55675902    -0.79500
O307        O  0.79021299  0.25561216  0.43377826    -0.79300
O308        O  0.71496863  0.31532201  0.42119882    -0.77900
Zn309      Zn  0.70075386  0.29086252  0.50572162     1.55700
O310        O  0.80556725  0.23374637  0.48637334    -0.79300
Cd311      Cd  0.76165533  0.30082993  0.44856043     1.59700
Cd312      Cd  0.76072011  0.34434544  0.51869648     1.59600
O313        O  0.79644002  0.34220439  0.44313300    -0.79300
O314        O  0.74960019  0.29826477  0.49903080    -1.89800
Cd315      Cd  0.77628965  0.26097756  0.52310833     1.59900
O316        O  0.77212585  0.38030244  0.48040426    -0.79200
O317        O  0.74004133  0.22513660  0.54344225    -0.77900
C318        C  0.69176776  0.34840518  0.55884256     0.84700
C319        C  0.68407622  0.32033569  0.43395907     0.84300
O320        O  0.69130373  0.23951305  0.51328925    -0.76800
C321        C  0.80778859  0.23391357  0.45282953     0.85100
O322        O  0.68107363  0.31962073  0.54567550    -0.76900
C323        C  0.79349788  0.37312190  0.45567934     0.85200
C324        C  0.82460257  0.31474263  0.55836602     0.85600
O325        O  0.80693448  0.33994163  0.54528153    -0.79400
O326        O  0.03211926  0.68639825  0.69885003    -0.76900
C327        C  0.95590762  0.71710184  0.78316051     0.84200
O328        O  0.97533411  0.73941156  0.63363188    -0.78000
O329        O  0.94317644  0.82560439  0.72310563    -0.79500
O330        O  0.05709298  0.78392305  0.77597449    -0.79300
O331        O  0.07933922  0.71883372  0.71008155    -0.77900
Zn332      Zn  0.99111307  0.71371253  0.71324885     1.55700
O333        O  0.00405812  0.80849895  0.78467547    -0.79300
Cd334      Cd  0.05326982  0.76588581  0.72411727     1.59700
Cd335      Cd  0.99410185  0.77915821  0.66527343     1.59600
O336        O  0.07383457  0.80491221  0.69261306    -0.79300
O337        O  0.00277331  0.76162358  0.71274797    -1.89800
Cd338      Cd  0.97248811  0.78564973  0.74738271     1.59900
O339        O  0.03721030  0.80449163  0.64637884    -0.79200
O340        O  0.94581250  0.74851440  0.77699198    -0.77900
C341        C  0.95913794  0.71157551  0.64254090     0.84700
C342        C  0.06510017  0.69084418  0.69810960     0.84300
O343        O  0.97598939  0.70034074  0.76213202    -0.76800
C344        C  0.03584086  0.80303575  0.79396266     0.85100
O345        O  0.95737660  0.70139119  0.67455611    -0.76900
C346        C  0.06452263  0.81575203  0.66220857     0.85200
C347        C  0.94294866  0.83594120  0.69100587     0.85600
O348        O  0.95928219  0.81962627  0.66677807    -0.79400
C349        C  0.13564956  0.56506241  0.64262009     0.88100
C350        C  0.11233840  0.59067571  0.66310504    -0.52100
C351        C  0.09141403  0.61099195  0.64236595     0.11000
C352        C  0.09380169  0.60212861  0.60261985     0.22000
C353        C  0.10993962  0.54248281  0.62068369    -0.52800
C354        C  0.08779422  0.56193269  0.59949046     0.11200
C355        C  0.15463844  0.58735534  0.61539232    -0.52400
C356        C  0.13308999  0.60695631  0.59447310     0.11700
H357        H  0.11384967  0.59394764  0.69156616     0.16200
H358        H  0.07623022  0.61830197  0.58566634     0.02000
H359        H  0.11023487  0.51401361  0.62074230     0.16500
H360        H  0.18317595  0.58902267  0.61464094     0.16300
C361        C  0.14556873  0.37674439  0.45075693     0.88100
C362        C  0.16323751  0.39606712  0.42023582    -0.52100
C363        C  0.14050367  0.41463263  0.39951504     0.11000
C364        C  0.10191030  0.41317811  0.41223419     0.22000
C365        C  0.12592499  0.40564739  0.47176950    -0.52800
C366        C  0.10258120  0.42470978  0.45142807     0.11200
C367        C  0.11608086  0.35513736  0.43411655    -0.52400
C368        C  0.09372292  0.37390235  0.41373281     0.11700
H369        H  0.19132213  0.39426937  0.41545207     0.16200
H370        H  0.08310541  0.42825897  0.39557836     0.02000
H371        H  0.12855239  0.40918821  0.50008423     0.16500
H372        H  0.11374580  0.32688805  0.43724090     0.16300
C373        C  0.85708781  0.64018401  0.55187881     0.88100
C374        C  0.87978006  0.61443354  0.52988344    -0.52100
C375        C  0.90257926  0.59438978  0.54994822     0.11000
C376        C  0.89972682  0.60227420  0.59019145     0.22000
C377        C  0.83837735  0.61744239  0.57909227    -0.52800
C378        C  0.86043753  0.59833388  0.59980852     0.11200
C379        C  0.88387836  0.66145820  0.57285405    -0.52400
C380        C  0.90613279  0.64199992  0.59315559     0.11700
H381        H  0.87871168  0.61307321  0.50128512     0.16200
H382        H  0.91764002  0.58649928  0.60715236     0.02000
H383        H  0.80999419  0.61765856  0.58271903     0.16500
H384        H  0.88342367  0.68993253  0.57309403     0.16300
C385        C  0.87013780  0.45897809  0.35523584     0.88100
C386        C  0.89723181  0.48021180  0.37689863    -0.52100
C387        C  0.91604487  0.46025256  0.40078442     0.11000
C388        C  0.90565230  0.42073274  0.39992706     0.22000
C389        C  0.89122931  0.42935745  0.33798498    -0.52800
C390        C  0.90877727  0.40862021  0.36118744     0.11200
C391        C  0.84740500  0.44118979  0.38307592    -0.52400
C392        C  0.86567374  0.42081370  0.40624471     0.11700
H393        H  0.90034018  0.50838390  0.37440447     0.16200
H394        H  0.92037638  0.40384307  0.41876379     0.02000
H395        H  0.89066103  0.42393869  0.30981276     0.16500
H396        H  0.81882238  0.44245957  0.38242078     0.16300
C397        C  0.95482858  0.36291293  0.62734744     0.88100
C398        C  0.93003881  0.34323003  0.60232368    -0.52100
C399        C  0.90892738  0.36463114  0.58268385     0.11000
C400        C  0.91636489  0.40398963  0.58799369     0.22000
C401        C  0.97677807  0.38700339  0.60329995    -0.52800
C402        C  0.95648517  0.40878030  0.58260028     0.11200
C403        C  0.93126862  0.38822123  0.64802564    -0.52400
C404        C  0.91031686  0.40895940  0.62761161     0.11700
H405        H  0.92764371  0.31487771  0.60244540     0.16200
H406        H  0.89968255  0.42146510  0.57143818     0.02000
H407        H  0.00535413  0.38767228  0.60350916     0.16500
H408        H  0.93070747  0.38873086  0.67667973     0.16300
C409        C  0.04886693  0.65402677  0.36745394     0.88100
C410        C  0.02810692  0.63012255  0.39272324    -0.52100
C411        C  0.04931238  0.60959076  0.41394941     0.11000
C412        C  0.08933282  0.61584154  0.40777200     0.22000
C413        C  0.07319672  0.67548328  0.39118711    -0.52800
C414        C  0.09514143  0.65578457  0.41146380     0.11200
C415        C  0.07296124  0.62893321  0.34733675    -0.52400
C416        C  0.09459617  0.60954054  0.36811321     0.11700
H417        H  0.99956116  0.62875324  0.39292683     0.16200
H418        H  0.10723733  0.59981849  0.42450707     0.02000
H419        H  0.07458623  0.70393202  0.39022444     0.16500
H420        H  0.07366862  0.62742518  0.31867733     0.16300
O421        O  0.04381935  0.43886762  0.46822893    -0.76900
C422        C  0.97110585  0.43704401  0.55997862     0.84200
O423        O  0.94244334  0.50866724  0.43253960    -0.78000
O424        O  0.94864945  0.55189713  0.55625231    -0.79500
O425        O  0.07566834  0.54275406  0.54073885    -0.79300
O426        O  0.08466762  0.48020331  0.47566442    -0.77900
Zn427      Zn  0.99682102  0.45948316  0.48580290     1.55700
O428        O  0.03315682  0.53630169  0.58078528    -0.79300
Cd429      Cd  0.05411615  0.52325289  0.49334562     1.59700
Cd430      Cd  0.97114420  0.54013376  0.46907251     1.59600
O431        O  0.05778166  0.56371497  0.45606488    -0.79300
O432        O  0.00291394  0.50927364  0.49957985    -1.89800
Cd433      Cd  0.99040006  0.51594296  0.55122805     1.59900
O434        O  0.00235055  0.57644770  0.44059403    -0.79200
O435        O  0.97401543  0.46793667  0.57285395    -0.77900
C436        C  0.94107151  0.47539711  0.42760996     0.84700
C437        C  0.07573932  0.44924942  0.46622815     0.84300
O438        O  0.97918594  0.43024532  0.52794136    -0.76800
C439        C  0.06423733  0.54594416  0.57229755     0.85100
O440        O  0.96006629  0.45449287  0.44596980    -0.76900
C441        C  0.03559585  0.58188185  0.43832380     0.85200
C442        C  0.92995185  0.57003781  0.53485386     0.85600
O443        O  0.93487151  0.56837457  0.50138280    -0.79400
C444        C  0.63986676  0.37666033  0.05068116     0.88100
C445        C  0.61691358  0.40252465  0.02933891    -0.52100
C446        C  0.59591389  0.42373667  0.05003899     0.11000
C447        C  0.60071171  0.41670593  0.09038042     0.22000
C448        C  0.66084133  0.39938627  0.07636185    -0.52800
C449        C  0.64061507  0.41966343  0.09778548     0.11200
C450        C  0.61369620  0.35673829  0.07337375    -0.52400
C451        C  0.59353108  0.37721546  0.09475225     0.11700
H452        H  0.61660239  0.40326103  0.00070407     0.16200
H453        H  0.58427320  0.43342618  0.10789373     0.02000
H454        H  0.68936487  0.39820749  0.07854312     0.16500
H455        H  0.61349228  0.32826576  0.07435300     0.16300
C456        C  0.54774262  0.65563718  0.12998119     0.88100
C457        C  0.57281694  0.67464357  0.10503637    -0.52100
C458        C  0.59381491  0.65273514  0.08595754     0.11000
C459        C  0.58588347  0.61360309  0.09143248     0.22000
C460        C  0.52560691  0.63167397  0.10578817    -0.52800
C461        C  0.54583631  0.60974049  0.08519825     0.11200
C462        C  0.57090662  0.63042678  0.15115915    -0.52400
C463        C  0.59095550  0.60839265  0.13123915     0.11700
H464        H  0.57490931  0.70300435  0.10416707     0.16200
H465        H  0.60240593  0.59572560  0.07516065     0.02000
H466        H  0.49702267  0.63157173  0.10541164     0.16500
H467        H  0.57254402  0.63166156  0.17975135     0.16300
C468        C  0.44787294  0.36716801  0.86999793     0.88100
C469        C  0.46904668  0.39151619  0.89455311    -0.52100
C470        C  0.44823087  0.41292823  0.91518578     0.11000
C471        C  0.40804413  0.40717126  0.90901283     0.22000
C472        C  0.42334524  0.34680883  0.89425967    -0.52800
C473        C  0.40154183  0.36745400  0.91363866     0.11200
C474        C  0.42405667  0.39187070  0.84904366    -0.52400
C475        C  0.40276085  0.41223852  0.86918032     0.11700
H476        H  0.49761862  0.39235494  0.89487674     0.16200
H477        H  0.39043348  0.42397953  0.92525504     0.02000
H478        H  0.42142487  0.31837201  0.89400822     0.16500
H479        H  0.42318073  0.39231450  0.82034974     0.16300
C480        C  0.35465242  0.64463872  0.94789835     0.88100
C481        C  0.33654025  0.62071973  0.92116173    -0.52100
C482        C  0.35920971  0.60152163  0.90103947     0.11000
C483        C  0.39824360  0.60637081  0.91112410     0.22000
C484        C  0.37744835  0.61966411  0.97076358    -0.52800
C485        C  0.40051049  0.59946137  0.95126560     0.11200
C486        C  0.38134896  0.66571716  0.92669230    -0.52400
C487        C  0.40408559  0.64592194  0.90729670     0.11700
H488        H  0.30817105  0.62041383  0.91775401     0.16200
H489        H  0.41672147  0.59028338  0.89508371     0.02000
H490        H  0.37603938  0.61860076  0.99934690     0.16500
H491        H  0.38058451  0.69417006  0.92563412     0.16300
C492        C  0.63125922  0.55907288  0.85426527     0.88100
C493        C  0.60559240  0.53788329  0.87770111    -0.52100
C494        C  0.58458604  0.55844958  0.89919218     0.11000
C495        C  0.59132812  0.59838817  0.89413262     0.22000
C496        C  0.60795943  0.58458249  0.83353518    -0.52800
C497        C  0.58783174  0.60583748  0.85417538     0.11200
C498        C  0.65155781  0.58193424  0.88036917    -0.52400
C499        C  0.63095563  0.60291682  0.90065125     0.11700
H500        H  0.60508961  0.50942788  0.87815085     0.16200
H501        H  0.57486098  0.61586939  0.91085642     0.02000
H502        H  0.60910054  0.58724295  0.80501210     0.16500
H503        H  0.68016200  0.58267309  0.88165454     0.16300
C504        C  0.36517421  0.45949359  0.14325420     0.88100
C505        C  0.38895079  0.43368800  0.16317952    -0.52100
C506        C  0.40946829  0.41327482  0.14184960     0.11000
C507        C  0.40627487  0.42263822  0.10233325     0.22000
C508        C  0.39058815  0.48219084  0.12128050    -0.52800
C509        C  0.41232984  0.46272649  0.09967308     0.11200
C510        C  0.34580657  0.43745199  0.11589737    -0.52400
C511        C  0.36696763  0.41808245  0.09450015     0.11700
H512        H  0.38761146  0.43059769  0.19158283     0.16200
H513        H  0.42344603  0.40664575  0.08481444     0.02000
H514        H  0.39043683  0.51065724  0.12167100     0.16500
H515        H  0.31724840  0.43588941  0.11519756     0.16300
O516        O  0.45908230  0.58450470  0.96911321    -0.76900
C517        C  0.53119963  0.58239460  0.06157911     0.84200
O518        O  0.55821049  0.51096241  0.93242235    -0.78000
O519        O  0.55115282  0.46751859  0.05688171    -0.79500
O520        O  0.42416947  0.48244875  0.04124611    -0.79300
O521        O  0.41738311  0.54397161  0.97561350    -0.77900
Zn522      Zn  0.50565034  0.56197947  0.98635456     1.55700
O523        O  0.46763944  0.48578941  0.08084158    -0.79300
Cd524      Cd  0.44642145  0.50028688  0.99375367     1.59700
Cd525      Cd  0.52889362  0.48061154  0.96940442     1.59600
O526        O  0.44113868  0.45952745  0.95689234    -0.79300
O527        O  0.49811936  0.51236873  0.99985305    -1.89800
Cd528      Cd  0.51053323  0.50452958  0.05140365     1.59900
O529        O  0.49612921  0.44524222  0.94133205    -0.79200
O530        O  0.52747998  0.55149299  0.07385210    -0.77900
C531        C  0.56016330  0.54413524  0.92708231     0.84700
C532        C  0.42694938  0.57479760  0.96666165     0.84300
O533        O  0.52395890  0.58988158  0.02945051    -0.76800
C534        C  0.43591992  0.47826365  0.07260484     0.85100
O535        O  0.54202836  0.56565759  0.94570672    -0.76900
C536        C  0.46272546  0.44064601  0.93921790     0.85200
C537        C  0.56915585  0.44897524  0.03531195     0.85600
O538        O  0.56418552  0.45111070  0.00183859    -0.79400
O539        O  0.29965229  0.47962727  0.67238459    -0.76900
C540        C  0.21529768  0.55401566  0.70398105     0.84200
O541        O  0.36465624  0.53081270  0.72612792    -0.78000
O542        O  0.27539352  0.56601805  0.81133574    -0.79500
O543        O  0.22237228  0.45200280  0.76910086    -0.79300
O544        O  0.28810288  0.43136970  0.70298006    -0.77900
Zn545      Zn  0.28511859  0.51927492  0.70082122     1.55700
O546        O  0.21419911  0.50439520  0.79502059    -0.79300
Cd547      Cd  0.27433089  0.45540387  0.75134886     1.59700
Cd548      Cd  0.33278656  0.51383009  0.76617333     1.59600
O549        O  0.30646632  0.43312618  0.78977761    -0.79300
O550        O  0.28546393  0.50579024  0.74837299    -1.89800
Cd551      Cd  0.25100101  0.53597304  0.77242159     1.59900
O552        O  0.35103470  0.47110496  0.79262878    -0.79200
O553        O  0.22108689  0.56325757  0.73583605    -0.77900
C554        C  0.35572781  0.54915965  0.69948691     0.84700
C555        C  0.30033190  0.44665617  0.67560390     0.84300
O556        O  0.23660945  0.53457957  0.68692593    -0.76800
C557        C  0.20451201  0.47310246  0.78854166     0.85100
O558        O  0.32362447  0.55307562  0.69017162    -0.76900
C559        C  0.33620006  0.44280440  0.80203544     0.85200
C560        C  0.30763337  0.56723258  0.82095593     0.85600
O561        O  0.33176712  0.55035565  0.80507382    -0.79400
C562        C  0.64267607  0.64658000  0.44768555     0.88100
C563        C  0.61840307  0.62298244  0.47025519    -0.52100
C564        C  0.59755890  0.60072618  0.45041720     0.11000
C565        C  0.60359242  0.60451622  0.41013547     0.22000
C566        C  0.66379513  0.62101856  0.42457087    -0.52800
C567        C  0.64340098  0.59987334  0.40401266     0.11200
C568        C  0.61743961  0.66518527  0.42253635    -0.52400
C569        C  0.59764547  0.64337805  0.40228574     0.11700
H570        H  0.61727424  0.62435082  0.49884146     0.16200
H571        H  0.58712735  0.58707825  0.39339670     0.02000
H572        H  0.69231478  0.62158526  0.42286290     0.16500
H573        H  0.61598254  0.69358971  0.42055366     0.16300
C574        C  0.63159329  0.46071381  0.63876918     0.88100
C575        C  0.60808967  0.48355358  0.61486739    -0.52100
C576        C  0.58534275  0.46423982  0.59421937     0.11000
C577        C  0.58887008  0.42392988  0.59979400     0.22000
C578        C  0.60585922  0.43830249  0.65999123    -0.52800
C579        C  0.58459679  0.41787712  0.63971815     0.11200
C580        C  0.64993121  0.43554138  0.61335863    -0.52400
C581        C  0.62786607  0.41544659  0.59374352     0.11700
H582        H  0.60957107  0.51196428  0.61406143     0.16200
H583        H  0.57096539  0.40766653  0.58335169     0.02000
H584        H  0.60653960  0.43684300  0.68859049     0.16500
H585        H  0.67843345  0.43307437  0.61201931     0.16300
C586        C  0.44659141  0.65372183  0.63524799     0.88100
C587        C  0.46914849  0.63128848  0.60964390    -0.52100
C588        C  0.44936303  0.60993421  0.58779147     0.11000
C589        C  0.40916387  0.61346672  0.59421453     0.22000
C590        C  0.42094933  0.67379491  0.61139028    -0.52800
C591        C  0.40045332  0.65283493  0.59079386     0.11200
C592        C  0.42420980  0.62702419  0.65481145    -0.52400
C593        C  0.40461795  0.60591556  0.63363670     0.11700
H594        H  0.49772242  0.63173453  0.60937896     0.16200
H595        H  0.39255097  0.59642424  0.57721681     0.02000
H596        H  0.41838190  0.70212156  0.61226420     0.16500
H597        H  0.42280993  0.62631331  0.68343972     0.16300
C598        C  0.36780080  0.56603668  0.35270562     0.88100
C599        C  0.39116669  0.59260490  0.33386627    -0.52100
C600        C  0.41014239  0.61329769  0.35608569     0.11000
C601        C  0.40551807  0.60425390  0.39553551     0.22000
C602        C  0.39308699  0.54426417  0.37599623    -0.52800
C603        C  0.41294391  0.56426968  0.39874088     0.11200
C604        C  0.34613708  0.58758816  0.37884046    -0.52400
C605        C  0.36557954  0.60809137  0.40065834     0.11700
H606        H  0.39108794  0.59620039  0.30542084     0.16200
H607        H  0.42126095  0.62096347  0.41366974     0.02000
H608        H  0.39434645  0.51581947  0.37538304     0.16500
H609        H  0.31749300  0.58789878  0.37897041     0.16300
C610        C  0.55321184  0.36956782  0.36916591     0.88100
C611        C  0.58061318  0.35099718  0.39209665    -0.52100
C612        C  0.60114161  0.37310851  0.41129505     0.11000
C613        C  0.59101980  0.41228889  0.40729011     0.22000
C614        C  0.53107417  0.39192716  0.39485598    -0.52800
C615        C  0.55081740  0.41478864  0.41474717     0.11200
C616        C  0.57383158  0.39632276  0.34771961    -0.52400
C617        C  0.59416491  0.41805967  0.36736429     0.11700
H618        H  0.58495436  0.32280837  0.39142908     0.16200
H619        H  0.60754296  0.43041706  0.42319481     0.02000
H620        H  0.50252125  0.39107658  0.39591633     0.16500
H621        H  0.57377658  0.39690602  0.31901790     0.16300
C622        C  0.35732834  0.37929658  0.54993468     0.88100
C623        C  0.33666150  0.40362040  0.57443981    -0.52100
C624        C  0.35712136  0.42389566  0.59552300     0.11000
C625        C  0.39696694  0.42040228  0.58809046     0.22000
C626        C  0.38028770  0.40409407  0.52754218    -0.52800
C627        C  0.40115238  0.42605687  0.54759697     0.11200
C628        C  0.38357446  0.36001892  0.57346775    -0.52400
C629        C  0.40373200  0.38103864  0.59396072     0.11700
H630        H  0.30815280  0.40291321  0.57683805     0.16200
H631        H  0.41368637  0.43758904  0.60483031     0.02000
H632        H  0.38050038  0.40392941  0.49889949     0.16500
H633        H  0.38502842  0.33155019  0.57496484     0.16300
O634        O  0.45914141  0.44071780  0.52830978    -0.76900
C635        C  0.53470128  0.44252291  0.43739850     0.84200
O636        O  0.55923359  0.51314409  0.56356053    -0.78000
O637        O  0.55223534  0.55793868  0.44331468    -0.79500
O638        O  0.42508360  0.54525639  0.45761237    -0.79300
O639        O  0.41777485  0.48215981  0.52392106    -0.77900
Zn640      Zn  0.50503097  0.46328543  0.51046078     1.55700
O641        O  0.46814155  0.53989602  0.41770082    -0.79300
Cd642      Cd  0.44684747  0.52593791  0.50521293     1.59700
Cd643      Cd  0.52914692  0.54479591  0.52911541     1.59600
O644        O  0.44273240  0.56579785  0.54343252    -0.79300
O645        O  0.49828355  0.51332354  0.49817114    -1.89800
Cd646      Cd  0.51171035  0.52073497  0.44702811     1.59900
O647        O  0.49761901  0.57931185  0.55972028    -0.79200
O648        O  0.53148608  0.47363847  0.42517731    -0.77900
C649        C  0.56057576  0.47986802  0.56790096     0.84700
C650        C  0.42729284  0.45095524  0.53217640     0.84300
O651        O  0.52476337  0.43483810  0.46861395    -0.76800
C652        C  0.43670325  0.54882153  0.42612280     0.85100
O653        O  0.54132618  0.45918682  0.54975829    -0.76900
C654        C  0.46424680  0.58378590  0.56212904     0.85200
C655        C  0.57010338  0.57650198  0.46503815     0.85600
O656        O  0.56464124  0.57483815  0.49834030    -0.79400
O657        O  0.47477481  0.69924576  0.73727551    -0.76900
C658        C  0.56351101  0.68806790  0.80079765     0.84200
O659        O  0.47493358  0.74092052  0.86567815    -0.78000
O660        O  0.57476339  0.80297955  0.80989698    -0.79500
O661        O  0.50581415  0.80863132  0.71590090    -0.79300
O662        O  0.44787437  0.74821294  0.71933665    -0.77900
Zn663      Zn  0.49001970  0.71327602  0.78619534     1.55700
O664        O  0.55840678  0.78324367  0.72561102    -0.79300
Cd665      Cd  0.47283218  0.78518279  0.75107253     1.59700
Cd666      Cd  0.49315688  0.77991130  0.83344080     1.59600
O667        O  0.44091247  0.82423114  0.77413262    -0.79300
O668        O  0.50263695  0.76112768  0.78657935    -1.89800
Cd669      Cd  0.55369203  0.76449595  0.77707047     1.59900
O670        O  0.45665850  0.81847016  0.83054939    -0.79200
O671        O  0.57845732  0.71608744  0.78989825    -0.77900
C672        C  0.45816046  0.71330594  0.85707004     0.84700
C673        C  0.45666533  0.71617206  0.71464025     0.84300
O674        O  0.53039676  0.68468778  0.80003603    -0.76800
C675        C  0.53771576  0.80277730  0.70737664     0.85100
O676        O  0.45628794  0.70242145  0.82521074    -0.76900
C677        C  0.43973240  0.83421034  0.80636444     0.85200
C678        C  0.56386792  0.81629824  0.83880364     0.85600
O679        O  0.53489224  0.80741471  0.85285073    -0.79400
O680        O  0.23548287  0.00810093  0.17951228    -0.76900
C681        C  0.31075892  0.08405443  0.18436252     0.84200
O682        O  0.35197697  0.96642612  0.22160353    -0.78000
O683        O  0.32282321  0.07222708  0.29650409    -0.79500
O684        O  0.21620026  0.01969907  0.29278679    -0.79300
O685        O  0.21240397  0.97496687  0.22216348    -0.77900
Zn686      Zn  0.28467729  0.01130196  0.19497570     1.55700
O687        O  0.23409829  0.07406532  0.27951458    -0.79300
Cd688      Cd  0.24798215  0.98731922  0.26414251     1.59700
Cd689      Cd  0.33165468  0.00019268  0.25749128     1.59600
O690        O  0.27171804  0.95315255  0.30245556    -0.79300
O691        O  0.28548074  0.01606343  0.24375421    -1.89800
Cd692      Cd  0.28396183  0.06537490  0.25797572     1.59900
O693        O  0.32662079  0.97416651  0.30281444    -0.79200
O694        O  0.29940590  0.09561687  0.21402034    -0.77900
C695        C  0.34010654  0.95699446  0.19175777     0.84700
C696        C  0.21005653  0.99069084  0.19213661     0.84300
O697        O  0.30716160  0.05231116  0.17511582    -0.76800
C698        C  0.21231338  0.05281340  0.29381723     0.85100
O699        O  0.31258881  0.97034192  0.17809252    -0.76900
C700        C  0.30261081  0.95568300  0.31644718     0.85200
C701        C  0.35494925  0.06296725  0.29264669     0.85600
O702        O  0.36409500  0.04079817  0.26933656    -0.79400
O703        O  0.17565171  0.81774568  0.96270699    -0.76900
C704        C  0.20178369  0.72926264  0.03725766     0.84200
O705        O  0.22702043  0.87901797  0.02802970    -0.78000
O706        O  0.31111579  0.78834210  0.05560386    -0.79500
O707        O  0.27236907  0.74171524  0.93797751    -0.79300
O708        O  0.21261977  0.81528147  0.91702860    -0.77900
Zn709      Zn  0.20013709  0.80076700  0.00467629     1.55700
O710        O  0.29540557  0.73070136  0.99140209    -0.79300
Cd711      Cd  0.25764035  0.79475028  0.94385523     1.59700
Cd712      Cd  0.26627370  0.84941004  0.00547657     1.59600
O713        O  0.30451014  0.82195531  0.93506779    -0.79300
O714        O  0.24868200  0.80213951  0.99475116    -1.89800
Cd715      Cd  0.27145574  0.76604208  0.02421311     1.59900
O716        O  0.28934754  0.87122163  0.96147375    -0.79200
O717        O  0.23316839  0.73501758  0.04814174    -0.77900
C718        C  0.19842122  0.86939226  0.04257438     0.84700
C719        C  0.18278066  0.82377190  0.93062636     0.84300
O720        O  0.18552412  0.75101752  0.01744336    -0.76800
C721        C  0.29069951  0.72261241  0.95913464     0.85100
O722        O  0.18693361  0.83798924  0.04027803    -0.76900
C723        C  0.31280745  0.85196356  0.94731780     0.85200
C724        C  0.32276965  0.81979018  0.05576913     0.85600
O725        O  0.30753190  0.84451437  0.03917406    -0.79400
C726        C  0.35446880  0.94635000  0.87420012     0.88100
C727        C  0.37914869  0.97298839  0.89274464    -0.52100
C728        C  0.40824477  0.95801973  0.90804537     0.11000
C729        C  0.40930370  0.91787229  0.90364331     0.22000
C730        C  0.37804466  0.92621769  0.84833994    -0.52800
C731        C  0.40618416  0.91035500  0.86382419     0.11200
C732        C  0.34505869  0.91961594  0.90318176    -0.52400
C733        C  0.37404170  0.90473494  0.91869418     0.11700
H734        H  0.37339002  0.00076313  0.89479584     0.16200
H735        H  0.43276196  0.90554534  0.91617804     0.02000
H736        H  0.37164817  0.92330131  0.82051802     0.16500
H737        H  0.31820041  0.91365893  0.91072371     0.16300
C738        C  0.64094225  0.88423621  0.94873412     0.88100
C739        C  0.66108493  0.90782056  0.92345038    -0.52100
C740        C  0.64021634  0.92750993  0.90210851     0.11000
C741        C  0.60037926  0.92370569  0.90975166     0.22000
C742        C  0.61760067  0.90937485  0.97055004    -0.52800
C743        C  0.59586471  0.93030820  0.95021179     0.11200
C744        C  0.61497465  0.86389893  0.92588071    -0.52400
C745        C  0.59436322  0.88409449  0.90489837     0.11700
H746        H  0.68959646  0.90718426  0.92101203     0.16200
H747        H  0.58334641  0.94008456  0.89247293     0.02000
H748        H  0.61756644  0.90981718  0.99919519     0.16500
H749        H  0.61401088  0.83538979  0.92521044     0.16300
C750        C  0.44930926  0.87061581  0.13145836     0.88100
C751        C  0.42544220  0.84980530  0.10644580    -0.52100
C752        C  0.40493801  0.87033153  0.08535239     0.11000
C753        C  0.41144762  0.90988551  0.08989261     0.22000
C754        C  0.47163209  0.89445167  0.10733244    -0.52800
C755        C  0.45161575  0.91564378  0.08563506     0.11200
C756        C  0.42496181  0.89615743  0.15069678    -0.52400
C757        C  0.40430053  0.91584021  0.12905003     0.11700
H758        H  0.42334300  0.82141518  0.10730200     0.16200
H759        H  0.39458634  0.92644414  0.07260783     0.02000
H760        H  0.50017548  0.89551332  0.10842551     0.16500
H761        H  0.42385805  0.89781315  0.17930423     0.16300
C762        C  0.35630989  0.15068605  0.05394215     0.88100
C763        C  0.37503959  0.12225422  0.03145807    -0.52100
C764        C  0.39881646  0.10242812  0.05060647     0.11000
C765        C  0.40098323  0.11292086  0.08999263     0.22000
C766        C  0.33970684  0.13065694  0.08456161    -0.52800
C767        C  0.36305215  0.11189934  0.10408044     0.11200
C768        C  0.38648288  0.17165976  0.07007996    -0.52400
C769        C  0.40942733  0.15208090  0.08903408     0.11700
H770        H  0.37147779  0.11950125  0.00315801     0.16200
H771        H  0.42007896  0.09728208  0.10578058     0.02000
H772        H  0.31184355  0.13206720  0.09091525     0.16500
H773        H  0.38848716  0.20005614  0.06830542     0.16300
C774        C  0.54754744  0.15708646  0.86627998     0.88100
C775        C  0.52437684  0.13308662  0.88942390    -0.52100
C776        C  0.54374138  0.11092986  0.91078274     0.11000
C777        C  0.58415755  0.11496755  0.90632601     0.22000
C778        C  0.57154481  0.17602792  0.89248596    -0.52800
C779        C  0.59211004  0.15422933  0.91216140     0.11200
C780        C  0.57139524  0.13179666  0.84615310    -0.52400
C781        C  0.59063609  0.10971998  0.86671635     0.11700
H782        H  0.49579966  0.13348518  0.88894149     0.16200
H783        H  0.60010987  0.09714226  0.92320954     0.02000
H784        H  0.57382744  0.20437725  0.89317381     0.16500
H785        H  0.57416752  0.13304203  0.81765727     0.16300
C786        C  0.63193696  0.06889937  0.14336090     0.88100
C787        C  0.61000532  0.09614233  0.16309089    -0.52100
C788        C  0.59008972  0.11695756  0.14191587     0.11000
C789        C  0.59248774  0.10744254  0.10226499     0.22000
C790        C  0.60515325  0.04731818  0.12147551    -0.52800
C791        C  0.58439102  0.06740209  0.09926391     0.11200
C792        C  0.65233122  0.08939556  0.11580076    -0.52400
C793        C  0.63217304  0.10996809  0.09452324     0.11700
H794        H  0.61155191  0.09987223  0.19150262     0.16200
H795        H  0.57615867  0.12453777  0.08500686     0.02000
H796        H  0.60389593  0.01889872  0.12233457     0.16500
H797        H  0.68093734  0.08937712  0.11506171     0.16300
O798        O  0.46402042  0.98417560  0.92345893    -0.76900
C799        C  0.52814856  0.08493503  0.93562521     0.84200
O800        O  0.56525087  0.95760575  0.99904906    -0.78000
O801        O  0.54130836  0.07325157  0.05303729    -0.79500
O802        O  0.41667109  0.04650922  0.02787972    -0.79300
O803        O  0.42122066  0.98401802  0.96361589    -0.77900
Zn804      Zn  0.50729296  0.00688139  0.94906764     1.55700
O805        O  0.45648402  0.08946340  0.02985498    -0.79300
Cd806      Cd  0.44597657  0.00345983  0.00886899     1.59700
Cd807      Cd  0.52935952  0.98616137  0.03127920     1.59600
O808        O  0.44366132  0.96274232  0.04539922    -0.79300
O809        O  0.49708566  0.01564719  0.99976568    -1.89800
Cd810      Cd  0.50397819  0.06697293  0.01207615     1.59900
O811        O  0.49907984  0.94922114  0.06008530    -0.79200
O812        O  0.52215869  0.09432962  0.96749057    -0.77900
C813        C  0.56861095  0.95473238  0.96546863     0.84700
C814        C  0.43240092  0.97699322  0.93268163     0.84300
O815        O  0.52288026  0.05338112  0.92514488    -0.76800
C816        C  0.42517697  0.07820544  0.03466868     0.85100
O817        O  0.54853954  0.97181579  0.94442296    -0.76900
C818        C  0.46583610  0.94394186  0.06240009     0.85200
C819        C  0.55964543  0.05221835  0.07196950     0.85600
O820        O  0.55784917  0.01886903  0.06735668    -0.79400
O821        O  0.97775813  0.82334266  0.26899935    -0.76900
C822        C  0.06226458  0.82470179  0.19493029     0.84200
O823        O  0.95805501  0.79133468  0.14197111    -0.78000
O824        O  0.05336584  0.70977150  0.17953945    -0.79500
O825        O  0.99983874  0.71364163  0.28338194    -0.79300
O826        O  0.94431144  0.77702670  0.28224475    -0.77900
Zn827      Zn  0.98782040  0.81245139  0.21837519     1.55700
O828        O  0.05395189  0.73012242  0.26705251    -0.79300
Cd829      Cd  0.96675717  0.73943103  0.24941001     1.59700
Cd830      Cd  0.98165614  0.75131896  0.16693359     1.59600
O831        O  0.93550005  0.70136113  0.22489478    -0.79300
O832        O  0.99513243  0.76374264  0.21417771    -1.89800
Cd833      Cd  0.04495399  0.74972293  0.21670758     1.59900
O834        O  0.95125994  0.70813627  0.16853732    -0.79200
O835        O  0.07411568  0.79383967  0.20113461    -0.77900
C836        C  0.94724758  0.82118478  0.15198559     0.84700
C837        C  0.95742781  0.80697342  0.28992207     0.84300
O838        O  0.03102830  0.83387626  0.20228711    -0.76800
C839        C  0.03296509  0.71472709  0.28832541     0.85100
O840        O  0.95216975  0.83246375  0.18335146    -0.76900
C841        C  0.93553646  0.69130048  0.19265389     0.85200
C842        C  0.04444063  0.71311968  0.14724410     0.85600
O843        O  0.02310209  0.73672275  0.13746909    -0.79400
O844        O  0.80686264  0.28403653  0.98260023    -0.76900
C845        C  0.81499420  0.20688096  0.06320049     0.84200
O846        O  0.77922554  0.16063491  0.94762632    -0.78000
O847        O  0.70045526  0.18787255  0.05249949    -0.79500
O848        O  0.69999984  0.29356764  0.00183719    -0.79300
O849        O  0.76215717  0.29359208  0.94528659    -0.77900
Zn850      Zn  0.79894324  0.23290417  0.99026940     1.55700
O851        O  0.71623520  0.27575505  0.05580165    -0.79300
Cd852      Cd  0.72526828  0.26056202  0.96796938     1.59700
Cd853      Cd  0.73929967  0.17867450  0.97891658     1.59600
O854        O  0.68591864  0.23723567  0.93721136    -0.79300
O855        O  0.75055985  0.22526940  0.99575412    -1.89800
Cd856      Cd  0.73831203  0.22654889  0.04576335     1.59900
O857        O  0.69336021  0.18095872  0.95159958    -0.79200
O858        O  0.78379674  0.21232507  0.07485474    -0.77900
C859        C  0.80798898  0.17496518  0.93838570     0.84700
C860        C  0.79102461  0.30306762  0.95994554     0.84300
O861        O  0.82366773  0.21452013  0.03185238    -0.76800
C862        C  0.70073049  0.29747186  0.03514126     0.85100
O863        O  0.81822534  0.20435606  0.95048435    -0.76900
C864        C  0.67561106  0.20534320  0.93721200     0.85200
C865        C  0.70324166  0.15608667  0.04216763     0.85600
O866        O  0.72634138  0.14662841  0.01980359    -0.79400
O867        O  0.27572889  0.02280272  0.69686649    -0.76900
C868        C  0.19497268  0.94395723  0.68426783     0.84200
O869        O  0.15155728  0.06009847  0.72095031    -0.78000
O870        O  0.16726055  0.95208605  0.79611598    -0.79500
O871        O  0.27454937  0.99422393  0.81026721    -0.79300
O872        O  0.28710815  0.05226826  0.74671344    -0.77900
Zn873      Zn  0.22370951  0.01510140  0.70329680     1.55700
O874        O  0.25458150  0.94199688  0.79239951    -0.79300
Cd875      Cd  0.24901086  0.03137693  0.78044148     1.59700
Cd876      Cd  0.16649303  0.02711863  0.76070495     1.59600
O877        O  0.22493814  0.06471277  0.81708791    -0.79300
O878        O  0.21333891  0.00773344  0.75155962    -1.89800
Cd879      Cd  0.21020280  0.95744738  0.76292043     1.59900
O880        O  0.16804259  0.05351017  0.80735285    -0.79200
O881        O  0.19807235  0.93098422  0.71532418    -0.77900
C882        C  0.16695635  0.06889944  0.69257421     0.84700
C883        C  0.29580045  0.04206083  0.71568361     0.84300
O884        O  0.20497965  0.97482174  0.67696311    -0.76800
C885        C  0.27519222  0.96086099  0.81134820     0.85100
O886        O  0.19632265  0.05577021  0.68311371    -0.76900
C887        C  0.19251620  0.06679415  0.82592316     0.85200
C888        C  0.13636129  0.96464301  0.79194572     0.85600
O889        O  0.12997846  0.98888453  0.76987580    -0.79400
C890        C  0.14320378  0.13979064  0.95424226     0.88100
C891        C  0.11967124  0.11538210  0.97662978    -0.52100
C892        C  0.09700902  0.09522753  0.95663019     0.11000
C893        C  0.10049540  0.10168310  0.91636506     0.22000
C894        C  0.16195828  0.11532950  0.92839960    -0.52800
C895        C  0.13984476  0.09634833  0.90749644     0.11200
C896        C  0.11716932  0.16091692  0.93196140    -0.52400
C897        C  0.09496850  0.14130961  0.91189667     0.11700
H898        H  0.12018940  0.11478308  0.00526136     0.16200
H899        H  0.08238964  0.08570045  0.89985187     0.02000
H900        H  0.19039039  0.11497010  0.92578270     0.16500
H901        H  0.11815891  0.18934329  0.93062424     0.16300
C902        C  0.12582546  0.95445465  0.15049195     0.88100
C903        C  0.09953127  0.97711545  0.12893678    -0.52100
C904        C  0.08010326  0.95819176  0.10472502     0.11000
C905        C  0.08903623  0.91841222  0.10482374     0.22000
C906        C  0.10367010  0.92574881  0.16702240    -0.52800
C907        C  0.08538176  0.90617007  0.14338727     0.11200
C908        C  0.14796233  0.93507053  0.12271369    -0.52400
C909        C  0.12891961  0.91638754  0.09867108     0.11700
H910        H  0.09752942  0.00540141  0.13158320     0.16200
H911        H  0.07352819  0.90261936  0.08566881     0.02000
H912        H  0.10415956  0.91975297  0.19505612     0.16500
H913        H  0.17649534  0.93406888  0.12397739     0.16300
C914        C  0.94394005  0.15594566  0.13397645     0.88100
C915        C  0.96604919  0.13433744  0.10732864    -0.52100
C916        C  0.94615212  0.11239810  0.08634306     0.11000
C917        C  0.90605687  0.11496730  0.09391470     0.22000
C918        C  0.91660686  0.17550498  0.11172559    -0.52800
C919        C  0.89629837  0.15423871  0.09132998     0.11200
C920        C  0.92320086  0.12837691  0.15410334    -0.52400
C921        C  0.90296396  0.10724537  0.13352522     0.11700
H922        H  0.99462284  0.13469939  0.10668266     0.16200
H923        H  0.88949346  0.09760910  0.07718950     0.02000
H924        H  0.91262768  0.20371246  0.11316227     0.16500
H925        H  0.92275002  0.12747605  0.18276630     0.16300
C926        C  0.84729218  0.88175772  0.05342838     0.88100
C927        C  0.82463029  0.90703389  0.07528528    -0.52100
C928        C  0.84368836  0.92884322  0.09639457     0.11000
C929        C  0.88409092  0.92506529  0.09190157     0.22000
C930        C  0.87220464  0.90536941  0.03156476    -0.52800
C931        C  0.89202576  0.92822642  0.05172235     0.11200
C932        C  0.87145760  0.86407424  0.08016534    -0.52400
C933        C  0.89088183  0.88636394  0.10039135     0.11700
H934        H  0.79610496  0.90550898  0.07626190     0.16200
H935        H  0.89959199  0.94309352  0.10892078     0.02000
H936        H  0.87490532  0.90312967  0.00314010     0.16500
H937        H  0.87166141  0.83580828  0.08371817     0.16300
C938        C  0.04803537  0.86790467  0.87030032     0.88100
C939        C  0.07777870  0.85125619  0.89188491    -0.52100
C940        C  0.09850202  0.87466892  0.90899717     0.11000
C941        C  0.08604639  0.91303696  0.90516128     0.22000
C942        C  0.02642783  0.88974044  0.89700509    -0.52800
C943        C  0.04628847  0.91376240  0.91558948     0.11200
C944        C  0.06579709  0.89527334  0.84707963    -0.52400
C945        C  0.08611677  0.91865167  0.86496483     0.11700
H946        H  0.08331400  0.82326474  0.89191594     0.16200
H947        H  0.10284939  0.93206311  0.91962882     0.02000
H948        H  0.99818528  0.88699813  0.90028143     0.16500
H949        H  0.06473033  0.89397770  0.81845345     0.16300
C950        C  0.86602873  0.06327017  0.85704111     0.88100
C951        C  0.89175448  0.08492841  0.83509837    -0.52100
C952        C  0.91389138  0.10507248  0.85466750     0.11000
C953        C  0.91003467  0.10006665  0.89486596     0.22000
C954        C  0.88953112  0.04057408  0.88148786    -0.52800
C955        C  0.91274851  0.05988367  0.90182029     0.11200
C956        C  0.84852990  0.08925211  0.88205729    -0.52400
C957        C  0.87122151  0.10927790  0.90108500     0.11700
H958        H  0.89057013  0.08643767  0.80648223     0.16200
H959        H  0.92836815  0.11646756  0.91067516     0.02000
H960        H  0.88717871  0.01228192  0.88336125     0.16500
H961        H  0.82008153  0.09198365  0.88387127     0.16300
O962        O  0.97058384  0.09095714  0.03184225    -0.76900
C963        C  0.06958297  0.07152551  0.97170240     0.84200
O964        O  0.93678460  0.01141138  0.93561665    -0.78000
O965        O  0.05248924  0.95835460  0.95961163    -0.79500
O966        O  0.02521482  0.98440548  0.08563614    -0.79300
O967        O  0.96470473  0.05318896  0.07641699    -0.77900
Zn968      Zn  0.99015880  0.06136204  0.99005400     1.55700
O969        O  0.06812420  0.97746123  0.04591612    -0.79300
Cd970      Cd  0.98210490  0.00471129  0.05536545     1.59700
Cd971      Cd  0.96498651  0.97987493  0.97264436     1.59600
O972        O  0.93930765  0.96939910  0.05918347    -0.79300
O973        O  0.99584185  0.01130238  0.00387147    -1.89800
Cd974      Cd  0.04738945  0.99756070  0.99828415     1.59900
O975        O  0.92754980  0.95193690  0.00409786    -0.79200
O976        O  0.07814278  0.04050250  0.98132597    -0.77900
C977        C  0.93620434  0.04459231  0.93004278     0.84700
C978        C  0.96163789  0.08413308  0.06364763     0.84300
O979        O  0.03765437  0.08228977  0.97338171    -0.76800
C980        C  0.05650327  0.97453908  0.07744207     0.85100
O981        O  0.95499497  0.06545098  0.94864849    -0.76900
C982        C  0.92105904  0.95120175  0.03736683     0.85200
C983        C  0.03113314  0.93997374  0.94119822     0.85600
O984        O  0.99762472  0.94413681  0.94375451    -0.79400
O985        O  0.31039481  0.25009272  0.02487236    -0.76900
C986        C  0.32125441  0.31158586  0.93665627     0.84200
O987        O  0.27183109  0.37706634  0.02346874    -0.78000
O988        O  0.20860606  0.32266382  0.92368042    -0.79500
O989        O  0.20203666  0.22707792  0.99649060    -0.79300
O990        O  0.26234908  0.23493265  0.05483751    -0.77900
Zn991      Zn  0.29659149  0.29815471  0.00991524     1.55700
O992        O  0.22431143  0.23649964  0.94254333    -0.79300
Cd993      Cd  0.22502865  0.26438167  0.02769887     1.59700
Cd994      Cd  0.23152563  0.34592916  0.00623754     1.59600
O995        O  0.18550827  0.28868381  0.05746500    -0.79300
O996        O  0.24870891  0.29868727  0.99697521    -1.89800
Cd997      Cd  0.24482949  0.28777395  0.94599492     1.59900
O998        O  0.19161017  0.34476493  0.04182113    -0.79200
O999        O  0.29371418  0.29930173  0.92151186    -0.77900
C1000       C  0.29963683  0.36835944  0.04012978     0.84700
C1001       C  0.29390893  0.22908205  0.04481512     0.84300
O1002       O  0.32450853  0.31174313  0.96981515    -0.76800
C1003       C  0.20637076  0.21809459  0.96442696     0.85100
O1004       O  0.30925153  0.33645549  0.04352459    -0.76900
C1005       C  0.17540391  0.32069957  0.05821787     0.85200
C1006       C  0.19793348  0.35281856  0.93389087     0.85600
O1007       O  0.20719172  0.36621663  0.96317750    -0.79400
O1008       O  0.73191510  0.48689887  0.68444274    -0.76900
C1009       C  0.80592123  0.56907396  0.67932667     0.84200
O1010       O  0.85530840  0.45715875  0.72170757    -0.78000
O1011       O  0.82051065  0.56378380  0.79429070    -0.79500
O1012       O  0.71516633  0.50961375  0.79366918    -0.79300
O1013       O  0.71825757  0.45328231  0.73078054    -0.77900
Zn1014     Zn  0.78263181  0.49567643  0.69546296     1.55700
O1015       O  0.73219876  0.56312515  0.77676008    -0.79300
Cd1016     Cd  0.74979417  0.47627894  0.76895378     1.59700
Cd1017     Cd  0.83266334  0.48904306  0.75838618     1.59600
O1018       O  0.77262105  0.44584810  0.80891855    -0.79300
O1019       O  0.78593505  0.50364021  0.74432772    -1.89800
Cd1020     Cd  0.78246054  0.55374461  0.75559391     1.59900
O1021       O  0.82851261  0.46309205  0.80424241    -0.79200
O1022       O  0.79712131  0.58147009  0.70954916    -0.77900
C1023       C  0.84390492  0.44639938  0.69208283     0.84700
C1024       C  0.71092205  0.46654575  0.70064419     0.84300
O1025       O  0.80118934  0.53713085  0.67122235    -0.76800
C1026       C  0.71062107  0.54266123  0.79251350     0.85100
O1027       O  0.81461747  0.45658306  0.67913235    -0.76900
C1028       C  0.80416980  0.44746035  0.82070506     0.85200
C1029       C  0.85277140  0.55432986  0.79261058     0.85600
O1030       O  0.86315092  0.53084104  0.77117272    -0.79400
O1031       O  0.97311567  0.18216497  0.80110735    -0.76900
C1032       C  0.04674277  0.21304328  0.71718624     0.84200
O1033       O  0.02578181  0.23695679  0.86724526    -0.78000
O1034       O  0.05995346  0.32049176  0.77791449    -0.79500
O1035       O  0.94599049  0.28052136  0.72330647    -0.79300
O1036       O  0.92504627  0.21224666  0.78643442    -0.77900
Zn1037     Zn  0.01321861  0.21044214  0.78785792     1.55700
O1038       O  0.99863427  0.30588382  0.71581834    -0.79300
Cd1039     Cd  0.94899439  0.26100611  0.77496628     1.59700
Cd1040     Cd  0.00688013  0.27595830  0.83491950     1.59600
O1041       O  0.92532275  0.29787748  0.80801421    -0.79300
O1042       O  0.99949130  0.25797471  0.78734576    -1.89800
Cd1043     Cd  0.02991815  0.28188642  0.75285561     1.59900
O1044       O  0.96295593  0.30077511  0.85332717    -0.79200
O1045       O  0.05612469  0.24478874  0.72231122    -0.77900
C1046       C  0.04348775  0.20968605  0.85906080     0.84700
C1047       C  0.93997854  0.18500645  0.79949020     0.84300
O1048       O  0.02831138  0.19632649  0.73944153    -0.76800
C1049       C  0.96714205  0.30005038  0.70583958     0.85100
O1050       O  0.04680405  0.19934105  0.82716995    -0.76900
C1051       C  0.93432064  0.30964185  0.83826220     0.85200
C1052       C  0.05929708  0.33125496  0.80989763     0.85600
O1053       O  0.04166439  0.31596294  0.83370938    -0.79400
C1054       C  0.85544863  0.37882169  0.94913147     0.88100
C1055       C  0.88080162  0.40236314  0.97051955    -0.52100
C1056       C  0.90232294  0.42274523  0.94965419     0.11000
C1057       C  0.89650211  0.41648894  0.90953589     0.22000
C1058       C  0.83561060  0.40420301  0.92498842    -0.52800
C1059       C  0.85687065  0.42273943  0.90315284     0.11200
C1060       C  0.87939517  0.35738539  0.92493218    -0.52400
C1061       C  0.90053579  0.37676826  0.90397515     0.11700
H1062       H  0.88131107  0.40315043  0.99915091     0.16200
H1063       H  0.91374928  0.43215607  0.89200829     0.02000
H1064       H  0.80707138  0.40546588  0.92375446     0.16500
H1065       H  0.87913358  0.32887000  0.92398339     0.16300
C1066       C  0.12835694  0.46218651  0.85309720     0.88100
C1067       C  0.10412968  0.43518628  0.83591093    -0.52100
C1068       C  0.08665324  0.41471938  0.85943040     0.11000
C1069       C  0.09288015  0.42511099  0.89831610     0.22000
C1070       C  0.10389159  0.48456473  0.87665566    -0.52800
C1071       C  0.08509634  0.46501067  0.90051137     0.11200
C1072       C  0.15128983  0.44145276  0.87900259    -0.52400
C1073       C  0.13293058  0.42168372  0.90216368     0.11700
H1074       H  0.10283762  0.43135810  0.80754371     0.16200
H1075       H  0.07802741  0.40892272  0.91750761     0.02000
H1076       H  0.10196563  0.51292506  0.87499632     0.16500
H1077       H  0.17991494  0.44116320  0.87805360     0.16300
C1078       C  0.94356005  0.65524551  0.86212798     0.88100
C1079       C  0.91818111  0.67586694  0.88558600    -0.52100
C1080       C  0.89695038  0.65551612  0.90572323     0.11000
C1081       C  0.90467822  0.61572786  0.90238792     0.22000
C1082       C  0.96529068  0.63221852  0.88781326    -0.52800
C1083       C  0.94497389  0.61129050  0.90926129     0.11200
C1084       C  0.92069460  0.62930130  0.84204407    -0.52400
C1085       C  0.90013963  0.60864775  0.86256474     0.11700
H1086       H  0.91583546  0.70426970  0.88481815     0.16200
H1087       H  0.88769253  0.59903596  0.91919607     0.02000
H1088       H  0.99387149  0.63169177  0.88822934     0.16500
H1089       H  0.91947079  0.62899815  0.81338109     0.16300
C1090       C  0.04624151  0.37000286  0.13113719     0.88100
C1091       C  0.02454857  0.39377935  0.10602544    -0.52100
C1092       C  0.04498352  0.41583204  0.08578277     0.11000
C1093       C  0.08495275  0.41153452  0.09301789     0.22000
C1094       C  0.07232080  0.35066297  0.10711701    -0.52800
C1095       C  0.09349786  0.37233303  0.08817526     0.11200
C1096       C  0.06858847  0.39560642  0.15256472    -0.52400
C1097       C  0.08890977  0.41729442  0.13280116     0.11700
H1098       H  0.99598340  0.39367420  0.10496326     0.16200
H1099       H  0.10206740  0.42906215  0.07722218     0.02000
H1100       H  0.07500709  0.32232119  0.10690891     0.16500
H1101       H  0.06955387  0.39493790  0.18120408     0.16300
C1102       C  0.86406239  0.56486404  0.13928075     0.88100
C1103       C  0.88896333  0.54273425  0.11586025    -0.52100
C1104       C  0.91046138  0.56270430  0.09455168     0.11000
C1105       C  0.90450460  0.60274231  0.09917365     0.22000
C1106       C  0.88837576  0.58946868  0.15980225    -0.52800
C1107       C  0.90846996  0.61034309  0.13894542     0.11200
C1108       C  0.84423812  0.58818888  0.11330490    -0.52400
C1109       C  0.86508946  0.60808034  0.09230293     0.11700
H1110       H  0.88897979  0.51426903  0.11558679     0.16200
H1111       H  0.92131859  0.61949083  0.08224126     0.02000
H1112       H  0.88778344  0.59156409  0.18835578     0.16500
H1113       H  0.81568101  0.59005569  0.11320881     0.16300
C1114       C  0.13996315  0.64919387  0.04850188     0.88100
C1115       C  0.16205812  0.62413102  0.07120024    -0.52100
C1116       C  0.14267008  0.60250133  0.09202542     0.11000
C1117       C  0.10247953  0.60643530  0.08690958     0.22000
C1118       C  0.11535117  0.62517792  0.02647657    -0.52800
C1119       C  0.09551299  0.60250313  0.04661094     0.11200
C1120       C  0.11541769  0.66735696  0.07433715    -0.52400
C1121       C  0.09592735  0.64550337  0.09470982     0.11700
H1122       H  0.19062320  0.62510702  0.07250370     0.16200
H1123       H  0.08668058  0.58861152  0.10371334     0.02000
H1124       H  0.11337547  0.62641196  0.99792596     0.16500
H1125       H  0.11524538  0.69569187  0.07762396     0.16300
O1126       O  0.03699727  0.58865893  0.02593494    -0.76900
C1127       C  0.96041010  0.58417323  0.93360628     0.84200
O1128       O  0.93690698  0.51461132  0.06292917    -0.78000
O1129       O  0.94615250  0.46703351  0.94171608    -0.79500
O1130       O  0.07152176  0.48382273  0.95895787    -0.79300
O1131       O  0.07727998  0.54588125  0.02546353    -0.77900
Zn1132     Zn  0.98995461  0.56550974  0.00868431     1.55700
O1133       O  0.02936938  0.48880128  0.91784694    -0.79300
Cd1134     Cd  0.04856057  0.50227678  0.00601360     1.59700
Cd1135     Cd  0.96679842  0.48338771  0.02809640     1.59600
O1136       O  0.05262296  0.46151144  0.04326558    -0.79300
O1137       O  0.99732051  0.51507839  0.99734902    -1.89800
Cd1138     Cd  0.98468572  0.50652487  0.94588946     1.59900
O1139       O  0.99756899  0.44818449  0.05835416    -0.79200
O1140       O  0.96427871  0.55271598  0.92231546    -0.77900
C1141       C  0.93514265  0.54784529  0.06754778     0.84700
C1142       C  0.06853792  0.57778116  0.03157768     0.84300
O1143       O  0.96948189  0.59270321  0.96510224    -0.76800
C1144       C  0.06072788  0.48042346  0.92712604     0.85100
O1145       O  0.95365839  0.56894586  0.04905848    -0.76900
C1146       C  0.03080205  0.44317933  0.06103082     0.85200
C1147       C  0.92843728  0.44877161  0.96366780     0.85600
O1148       O  0.93261382  0.45238256  0.99701062    -0.79400
O1149       O  0.46755015  0.68707731  0.29700242    -0.76900
C1150       C  0.53726679  0.71939049  0.20715705     0.84200
O1151       O  0.54547371  0.73259291  0.35203877    -0.78000
O1152       O  0.55946637  0.82206703  0.27507500    -0.79500
O1153       O  0.44102459  0.79373711  0.23236915    -0.79300
O1154       O  0.42243981  0.72477877  0.29590924    -0.77900
Zn1155     Zn  0.50761105  0.71251132  0.27768679     1.55700
O1156       O  0.49523381  0.81082507  0.21676420    -0.79300
Cd1157     Cd  0.44936911  0.77153831  0.28243483     1.59700
Cd1158     Cd  0.51378815  0.77131793  0.33278157     1.59600
O1159       O  0.43913197  0.80867995  0.32213604    -0.79300
O1160       O  0.49949966  0.76027859  0.28506004    -1.89800
Cd1161     Cd  0.52819086  0.78475686  0.25020664     1.59900
O1162       O  0.47185053  0.78397087  0.36417784    -0.79200
O1163       O  0.55152495  0.74818709  0.21686312    -0.77900
C1164       C  0.55815136  0.70562033  0.33681208     0.84700
C1165       C  0.43559774  0.69459141  0.30320810     0.84300
O1166       O  0.51474659  0.70370346  0.22622074    -0.76800
C1167       C  0.46217199  0.80969627  0.21151043     0.85100
O1168       O  0.54872025  0.69586227  0.30609951    -0.76900
C1169       C  0.44836220  0.80581505  0.35447869     0.85200
C1170       C  0.55812815  0.83258744  0.30708707     0.85600
O1171       O  0.54154709  0.81616903  0.33088071    -0.79400
O1172       O  0.52640647  0.20302841  0.76478651    -0.76900
C1173       C  0.43987258  0.18773133  0.70225115     0.84200
O1174       O  0.52675205  0.24171622  0.63544854    -0.78000
O1175       O  0.42484259  0.30224993  0.69051910    -0.79500
O1176       O  0.49350514  0.31227541  0.78296708    -0.79300
O1177       O  0.55119854  0.25274109  0.78327914    -0.77900
Zn1178     Zn  0.51258370  0.21517358  0.71510801     1.55700
O1179       O  0.44238412  0.28399187  0.77503686    -0.79300
Cd1180     Cd  0.52706389  0.28803887  0.74913151     1.59700
Cd1181     Cd  0.50719590  0.28070065  0.66705310     1.59600
O1182       O  0.55756505  0.32728599  0.72570762    -0.79300
O1183       O  0.49830528  0.26252833  0.71398589    -1.89800
Cd1184     Cd  0.44728207  0.26488631  0.72381128     1.59900
O1185       O  0.54181754  0.32060457  0.66934945    -0.79200
O1186       O  0.42407530  0.21560108  0.71269459    -0.77900
C1187       C  0.54425809  0.21447725  0.64408283     0.84700
C1188       C  0.54239272  0.22084225  0.78827407     0.84300
O1189       O  0.47309825  0.18539373  0.70228770    -0.76800
C1190       C  0.46230849  0.30488134  0.79241867     0.85100
O1191       O  0.54667912  0.20396127  0.67602842    -0.76900
C1192       C  0.55790613  0.33719338  0.69350228     0.85200
C1193       C  0.43533469  0.31518089  0.66137151     0.85600
O1194       O  0.46449921  0.30655694  0.64738610    -0.79400
O1195       O  0.69828101  0.98476766  0.82656138    -0.76900
C1196       C  0.78568374  0.05577695  0.79513421     0.84200
O1197       O  0.63523126  0.04028218  0.77153849    -0.78000
O1198       O  0.72456609  0.07082338  0.68661967    -0.79500
O1199       O  0.77558603  0.95592876  0.72807242    -0.79300
O1200       O  0.71063547  0.93667916  0.79562984    -0.77900
Zn1201     Zn  0.71385575  0.02448103  0.79855310     1.55700
O1202       O  0.78398970  0.00817653  0.70240351    -0.79300
Cd1203     Cd  0.72397775  0.96053600  0.74715323     1.59700
Cd1204     Cd  0.66624034  0.01985870  0.73229210     1.59600
O1205       O  0.69049489  0.93834482  0.70980242    -0.79300
O1206       O  0.71336847  0.01117903  0.75052279    -1.89800
Cd1207     Cd  0.74835345  0.04055398  0.72623211     1.59900
O1208       O  0.64573451  0.97646328  0.70838247    -0.79200
O1209       O  0.78014486  0.06548027  0.76332150    -0.77900
C1210       C  0.64383547  0.05726357  0.79922722     0.84700
C1211       C  0.69786002  0.95179131  0.82298914     0.84300
O1212       O  0.76329534  0.03782170  0.81226704    -0.76800
C1213       C  0.79336087  0.97665467  0.70837860     0.85100
O1214       O  0.67567698  0.05927646  0.80999250    -0.76900
C1215       C  0.66011540  0.94780075  0.69886335     0.85200
C1216       C  0.69268958  0.07065172  0.67563472     0.85600
O1217       O  0.66861433  0.05374483  0.69129659    -0.79400
C1218       C  0.37211052  0.05878348  0.65156553     0.88100
C1219       C  0.39531114  0.03779385  0.62555941    -0.52100
C1220       C  0.41580449  0.05847280  0.60428576     0.11000
C1221       C  0.41108768  0.09831290  0.61148038     0.22000
C1222       C  0.39765992  0.08223506  0.67219388    -0.52800
C1223       C  0.41714623  0.10373054  0.65137629     0.11200
C1224       C  0.35122553  0.08392798  0.62808166    -0.52400
C1225       C  0.37146182  0.10525193  0.60768371     0.11700
H1226       H  0.39491735  0.00939058  0.62355816     0.16200
H1227       H  0.42751928  0.11547418  0.59457798     0.02000
H1228       H  0.39823214  0.08386987  0.70081547     0.16500
H1229       H  0.32264307  0.08480958  0.62821172     0.16300
C1230       C  0.55137022  0.86600191  0.63026587     0.88100
C1231       C  0.52958088  0.88891309  0.60463658    -0.52100
C1232       C  0.54974486  0.91129510  0.58473317     0.11000
C1233       C  0.58986022  0.90823133  0.59265313     0.22000
C1234       C  0.57817796  0.84710263  0.60705845    -0.52800
C1235       C  0.59921212  0.86891858  0.58833876     0.11200
C1236       C  0.57270734  0.89218598  0.65207559    -0.52400
C1237       C  0.59321101  0.91385470  0.63270463     0.11700
H1238       H  0.50102644  0.88843433  0.60330621     0.16200
H1239       H  0.60669400  0.92609524  0.57694317     0.02000
H1240       H  0.58165889  0.81879362  0.60711175     0.16500
H1241       H  0.57263231  0.89266511  0.68077715     0.16300
C1242       C  0.64250496  0.14378194  0.54710058     0.88100
C1243       C  0.66200084  0.11918889  0.57253258    -0.52100
C1244       C  0.64034532  0.10082773  0.59421018     0.11000
C1245       C  0.60093657  0.10663471  0.58670156     0.22000
C1246       C  0.61767508  0.11959587  0.52579888    -0.52800
C1247       C  0.59584292  0.09963965  0.54666999     0.11200
C1248       C  0.61789311  0.16554878  0.57033620    -0.52400
C1249       C  0.59611068  0.14633783  0.59114588     0.11700
H1250       H  0.69050184  0.11798560  0.57440098     0.16200
H1251       H  0.58342196  0.09116422  0.60414795     0.02000
H1252       H  0.61744568  0.11839790  0.49717661     0.16500
H1253       H  0.61936812  0.19396694  0.57148102     0.16300
C1254       C  0.35121709  0.88362688  0.44657322     0.88100
C1255       C  0.37538546  0.90786376  0.46830373    -0.52100
C1256       C  0.39875036  0.92652432  0.44809768     0.11000
C1257       C  0.39497619  0.91889461  0.40770911     0.22000
C1258       C  0.33303252  0.90762411  0.41995280    -0.52800
C1259       C  0.35551451  0.92509703  0.39849030     0.11200
C1260       C  0.37642963  0.86078869  0.42506055    -0.52400
C1261       C  0.39916118  0.87879069  0.40430278     0.11700
H1262       H  0.37468139  0.90950463  0.49690078     0.16200
H1263       H  0.41351304  0.93376959  0.39081859     0.02000
H1264       H  0.30460058  0.90887531  0.41726335     0.16500
H1265       H  0.37442196  0.83237972  0.42463936     0.16300
C1266       C  0.62783159  0.96029295  0.35413240     0.88100
C1267       C  0.60223293  0.93530410  0.33627141    -0.52100
C1268       C  0.58441493  0.91436409  0.35896590     0.11000
C1269       C  0.59174426  0.92226557  0.39814979     0.22000
C1270       C  0.60490773  0.98229198  0.37959102    -0.52800
C1271       C  0.58550740  0.96228141  0.40275195     0.11200
C1272       C  0.65034306  0.93666773  0.37807497    -0.52400
C1273       C  0.63172827  0.91713966  0.40147193     0.11700
H1274       H  0.60024105  0.93285737  0.30778865     0.16200
H1275       H  0.57654270  0.90550326  0.41653624     0.02000
H1276       H  0.60391683  0.01073914  0.37907600     0.16500
H1277       H  0.67863826  0.93406565  0.37501045     0.16300
C1278       C  0.44802533  0.15604479  0.37167231     0.88100
C1279       C  0.42185384  0.17427854  0.39628033    -0.52100
C1280       C  0.40041108  0.15188456  0.41380179     0.11000
C1281       C  0.40831446  0.11286956  0.40681681     0.22000
C1282       C  0.46915040  0.13089014  0.39553816    -0.52800
C1283       C  0.44832929  0.10811990  0.41439921     0.11200
C1284       C  0.42583698  0.13201549  0.34849316    -0.52400
C1285       C  0.40479785  0.10954201  0.36647234     0.11700
H1286       H  0.41921293  0.20260153  0.39831766     0.16200
H1287       H  0.39083355  0.09476291  0.42149728     0.02000
H1288       H  0.49768906  0.13106778  0.39727048     0.16500
H1289       H  0.42526744  0.13453781  0.31993951     0.16300
O1290       O  0.52331357  0.93090040  0.53033424    -0.76900
C1291       C  0.42611309  0.95004345  0.46409018     0.84200
O1292       O  0.55841391  0.01030249  0.43413500    -0.78000
O1293       O  0.44132036  0.06382795  0.45838766    -0.79500
O1294       O  0.47041820  0.03573259  0.58247030    -0.79300
O1295       O  0.53279683  0.97041266  0.57293472    -0.77900
Zn1296     Zn  0.50474516  0.95975715  0.48725212     1.55700
O1297       O  0.42568605  0.04078283  0.54430312    -0.79300
Cd1298     Cd  0.51281080  0.01731677  0.55155201     1.59700
Cd1299     Cd  0.52827989  0.04096459  0.46939393     1.59600
O1300       O  0.55232717  0.05542499  0.55499313    -0.79300
O1301       O  0.49813559  0.00967765  0.50064302    -1.89800
Cd1302     Cd  0.44655151  0.02313476  0.49538186     1.59900
O1303       O  0.56331571  0.07181813  0.49966124    -0.79200
O1304       O  0.41708261  0.98059328  0.47494984    -0.77900
C1305       C  0.56075014  0.97708578  0.42977007     0.84700
C1306       C  0.53430275  0.93891731  0.56134830     0.84300
O1307       O  0.45796168  0.93909272  0.46700549    -0.76800
C1308       C  0.43850799  0.04408038  0.57546324     0.85100
O1309       O  0.54224347  0.95597153  0.44816805    -0.76900
C1310       C  0.56913399  0.07422398  0.53286018     0.85200
C1311       C  0.46272378  0.08096540  0.43901603     0.85600
O1312       O  0.49595681  0.07524104  0.44008529    -0.79400
C1313       C  0.65266435  0.08180434  0.62588448    -0.14800
C1314       C  0.68305980  0.08929875  0.64297238    -0.30000
H1315       H  0.63462725  0.06270129  0.63687198     0.14200
H1316       H  0.70118372  0.10870531  0.63279874     0.14800
C1317       C  0.61868185  0.93728826  0.65008700    -0.14800
C1318       C  0.64041478  0.92458128  0.67517277    -0.30000
H1319       H  0.61815035  0.96506982  0.64382617     0.14200
H1320       H  0.64265810  0.89644098  0.67923094     0.14800
C1321       C  0.42022131  0.15715986  0.68875509    -0.14800
C1322       C  0.43569750  0.13457261  0.66581297    -0.30000
H1323       H  0.39295083  0.15360651  0.69653988     0.14200
H1324       H  0.46170640  0.14009893  0.65538029     0.14800
C1325       C  0.56254177  0.19572662  0.61579646    -0.14800
C1326       C  0.57384518  0.16248016  0.61876654    -0.30000
H1327       H  0.56620380  0.20989531  0.59126087     0.14200
H1328       H  0.56758895  0.14719809  0.64206730     0.14800
C1329       C  0.56641748  0.88224561  0.34725265    -0.14800
C1330       C  0.57530211  0.86536992  0.31713235    -0.30000
H1331       H  0.54725036  0.87098674  0.36512606     0.14200
H1332       H  0.59505868  0.87565958  0.29939137     0.14800
C1333       C  0.43123753  0.82703246  0.38192397    -0.14800
C1334       C  0.42079248  0.86051764  0.37721984    -0.30000
H1335       H  0.42837763  0.81478087  0.40759444     0.14200
H1336       H  0.42680804  0.87409650  0.35281817     0.14800
C1337       C  0.06915345  0.38168102  0.84913930    -0.14800
C1338       C  0.07790914  0.36355523  0.81965972    -0.30000
H1339       H  0.04972847  0.37127925  0.86727301     0.14200
H1340       H  0.09781813  0.37314887  0.80166727     0.14800
C1341       C  0.91066428  0.33357419  0.85716549    -0.14800
C1342       C  0.92325930  0.35979949  0.87742712    -0.30000
H1343       H  0.88255570  0.32835106  0.85620712     0.14200
H1344       H  0.95088771  0.36699972  0.87643710     0.14800
C1345       C  0.81343645  0.43165139  0.85479004    -0.14800
C1346       C  0.84366709  0.44077450  0.87139801    -0.30000
H1347       H  0.79577353  0.41224786  0.86575640     0.14200
H1348       H  0.86125106  0.45977335  0.85951918     0.14800
C1349       C  0.87952226  0.57130526  0.81445905    -0.14800
C1350       C  0.87322355  0.58572842  0.84624977    -0.30000
H1351       H  0.90602938  0.57170114  0.80370747     0.14200
H1352       H  0.84785011  0.58269251  0.85902223     0.14800
C1353       C  0.14293456  0.33034522  0.07717040    -0.14800
C1354       C  0.12564177  0.36048070  0.06954941    -0.30000
H1355       H  0.13277667  0.31211981  0.09653812     0.14200
H1356       H  0.13657466  0.37850335  0.05034814     0.14800
C1357       C  0.17458344  0.37351729  0.91115421    -0.14800
C1358       C  0.15087250  0.39603761  0.92493111    -0.30000
H1359       H  0.17764191  0.37129207  0.88271581     0.14200
H1360       H  0.14554619  0.39650266  0.95308305     0.14800
C1361       C  0.91930758  0.15589143  0.81427025    -0.14800
C1362       C  0.93368552  0.13436736  0.83891186    -0.30000
H1363       H  0.89205069  0.15276295  0.80611803     0.14200
H1364       H  0.95971645  0.13969630  0.84956049     0.14800
C1365       C  0.83763531  0.04637001  0.83459691    -0.14800
C1366       C  0.81813849  0.06706871  0.81286599    -0.30000
H1367       H  0.83129207  0.01884580  0.83803527     0.14200
H1368       H  0.82584910  0.09414856  0.80861635     0.14800
C1369       C  0.07215150  0.15728201  0.88457735    -0.14800
C1370       C  0.06097932  0.19063164  0.88766055    -0.30000
H1371       H  0.06599142  0.14207381  0.86110389     0.14200
H1372       H  0.06449921  0.20474332  0.91233110     0.14800
C1373       C  0.16851660  0.16493350  0.97209582    -0.14800
C1374       C  0.18850496  0.18626290  0.95157310    -0.30000
H1375       H  0.16784927  0.16808891  0.00057109     0.14200
H1376       H  0.18879152  0.18213031  0.92317445     0.14800
C1377       C  0.34694945  0.03848577  0.67474972    -0.14800
C1378       C  0.32850095  0.05550980  0.70008222    -0.30000
H1379       H  0.34057899  0.01156630  0.66788204     0.14200
H1380       H  0.33568656  0.08210211  0.70740133     0.14800
C1381       C  0.18282348  0.08427435  0.85916706    -0.14800
C1382       C  0.15165469  0.07783822  0.87513368    -0.30000
H1383       H  0.20185347  0.10213536  0.87056750     0.14200
H1384       H  0.13298419  0.06003490  0.86287575     0.14800
C1385       C  0.11213069  0.94058224  0.84646176    -0.14800
C1386       C  0.10733837  0.95062514  0.81280330    -0.30000
H1387       H  0.13689070  0.94599667  0.85980272     0.14200
H1388       H  0.08174737  0.94828065  0.80017867     0.14800
C1389       C  0.80773555  0.33549547  0.94830435    -0.14800
C1390       C  0.83107582  0.35396207  0.96797705    -0.30000
H1391       H  0.80313217  0.34257362  0.92090620     0.14200
H1392       H  0.83544460  0.34789509  0.99563780     0.14800
C1393       C  0.86580960  0.16789823  0.07125082    -0.14800
C1394       C  0.84227561  0.19053261  0.08555304    -0.30000
H1395       H  0.86260552  0.15901222  0.04417082     0.14200
H1396       H  0.84331077  0.19695025  0.11348344     0.14800
C1397       C  0.82948131  0.15639885  0.91286837    -0.14800
C1398       C  0.85849158  0.13875291  0.92291110    -0.30000
H1399       H  0.81735634  0.15135626  0.88737637     0.14200
H1400       H  0.87083224  0.14377852  0.94830991     0.14800
C1401       C  0.08380902  0.85122715  0.17749079    -0.14800
C1402       C  0.06833442  0.87341387  0.15425709    -0.30000
H1403       H  0.11125010  0.85418276  0.18508557     0.14200
H1404       H  0.04185103  0.86846842  0.14455790     0.14800
C1405       C  0.91807837  0.65844883  0.18253926    -0.14800
C1406       C  0.92675958  0.64190687  0.15212389    -0.30000
H1407       H  0.89846595  0.64787370  0.20028128     0.14200
H1408       H  0.94623284  0.65333011  0.13466719     0.14800
C1409       C  0.91411351  0.87318641  0.12896417    -0.14800
C1410       C  0.92872300  0.84139703  0.12506163    -0.30000
H1411       H  0.91775273  0.88837550  0.15295833     0.14200
H1412       H  0.92682220  0.82827882  0.09962766     0.14800
C1413       C  0.07458674  0.65988528  0.12395387    -0.14800
C1414       C  0.05930377  0.69129407  0.11939014    -0.30000
H1415       H  0.07392069  0.64655289  0.14922985     0.14200
H1416       H  0.05767695  0.70228582  0.09296553     0.14800
C1417       C  0.64879980  0.13600907  0.07116338    -0.14800
C1418       C  0.68050040  0.12910167  0.05700033    -0.30000
H1419       H  0.63675537  0.16175944  0.06852708     0.14200
H1420       H  0.69080438  0.10246818  0.05710852     0.14800
C1421       C  0.61826978  0.08677346  0.85158285    -0.14800
C1422       C  0.61559354  0.07541544  0.81808935    -0.30000
H1423       H  0.64132415  0.08050915  0.86741270     0.14200
H1424       H  0.59116338  0.07908796  0.80357098     0.14800
C1425       C  0.62462677  0.16625930  0.93008136    -0.14800
C1426       C  0.64162469  0.19609887  0.92106628    -0.30000
H1427       H  0.63646410  0.14843632  0.94907713     0.14200
H1428       H  0.63069025  0.21412139  0.90181862     0.14800
C1429       C  0.53104738  0.18192446  0.83975492    -0.14800
C1430       C  0.55253595  0.20359455  0.82132383    -0.30000
H1431       H  0.50344380  0.17925181  0.83271396     0.14200
H1432       H  0.57978925  0.20689354  0.82942990     0.14800
C1433       C  0.33052558  0.17579095  0.03702630    -0.14800
C1434       C  0.31261129  0.19835599  0.05810709    -0.30000
H1435       H  0.32881768  0.17767766  0.00847289     0.14200
H1436       H  0.31358343  0.19554015  0.08662111     0.14800
C1437       C  0.46761238  0.84735487  0.15808192    -0.14800
C1438       C  0.44775875  0.82817921  0.18065001    -0.30000
H1439       H  0.49609744  0.84814010  0.16051717     0.14200
H1440       H  0.41928556  0.82800523  0.17754027     0.14800
C1441       C  0.65501558  0.94580801  0.87115426    -0.14800
C1442       C  0.68123392  0.93152677  0.85144127    -0.30000
H1443       H  0.64382886  0.97113275  0.86417647     0.14200
H1444       H  0.69012190  0.90482151  0.85612474     0.14800
C1445       C  0.32317317  0.96279013  0.85565964    -0.14800
C1446       C  0.30128115  0.94369638  0.83485729    -0.30000
H1447       H  0.32032902  0.99086112  0.85696010     0.14200
H1448       H  0.30411656  0.91565727  0.83361097     0.14800
C1449       C  0.16192651  0.67706481  0.03013611    -0.14800
C1450       C  0.18361697  0.69754008  0.04988937    -0.30000
H1451       H  0.15824781  0.68212452  0.00217666     0.14200
H1452       H  0.18801023  0.69091039  0.07743572     0.14800
C1453       C  0.35577676  0.82828690  0.07444435    -0.14800
C1454       C  0.37398696  0.85741007  0.06559074    -0.30000
H1455       H  0.36493954  0.81088058  0.09505022     0.14200
H1456       H  0.36402191  0.87452208  0.04503485     0.14800
C1457       C  0.15479728  0.84119808  0.90985878    -0.14800
C1458       C  0.13193860  0.86360324  0.92584550    -0.30000
H1459       H  0.15144585  0.83419170  0.88225187     0.14200
H1460       H  0.13699187  0.87277015  0.95254609     0.14800
C1461       C  0.34974872  0.85625197  0.95858569    -0.14800
C1462       C  0.37464862  0.87877415  0.94777413    -0.30000
H1463       H  0.35791377  0.83779607  0.97887942     0.14200
H1464       H  0.40006377  0.87582122  0.96070667     0.14800
C1465       C  0.17910081  0.89575295  0.06311734    -0.14800
C1466       C  0.14558629  0.89162497  0.07354421    -0.30000
H1467       H  0.19322205  0.91960451  0.06967089     0.14200
H1468       H  0.13051973  0.86908768  0.06470290     0.14800
C1469       C  0.17864027  0.98802837  0.16916427    -0.14800
C1470       C  0.14899536  0.97161749  0.17834941    -0.30000
H1471       H  0.18176937  0.99620061  0.14187299     0.14200
H1472       H  0.14592909  0.96378811  0.20573847     0.14800
C1473       C  0.32821460  0.10712705  0.15890973    -0.14800
C1474       C  0.35235362  0.09356807  0.13646159    -0.30000
H1475       H  0.31949384  0.13419919  0.15659861     0.14200
H1476       H  0.36308032  0.06745948  0.14077673     0.14800
C1477       C  0.31192441  0.93744283  0.34970577    -0.14800
C1478       C  0.34343968  0.94340678  0.36601093    -0.30000
H1479       H  0.29305353  0.91910370  0.36044935     0.14200
H1480       H  0.36235382  0.96107271  0.35413438     0.14800
C1481       C  0.35983290  0.93055865  0.17283441    -0.14800
C1482       C  0.37578772  0.93838312  0.14239950    -0.30000
H1483       H  0.36631863  0.90679324  0.18717761     0.14200
H1484       H  0.36908939  0.96217827  0.12813738     0.14800
C1485       C  0.37757625  0.08875652  0.34799765    -0.14800
C1486       C  0.38262420  0.07836180  0.31448616    -0.30000
H1487       H  0.35281314  0.08360683  0.36126591     0.14200
H1488       H  0.40852750  0.08043042  0.30257704     0.14800
C1489       C  0.55201885  0.82079216  0.67649550    -0.14800
C1490       C  0.53250484  0.84116191  0.65460650    -0.30000
H1491       H  0.58049539  0.82008619  0.67358632     0.14200
H1492       H  0.50398634  0.84210134  0.65651932     0.14800
C1493       C  0.41917193  0.86547913  0.81686132    -0.14800
C1494       C  0.42813588  0.88303009  0.84670947    -0.30000
H1495       H  0.39681540  0.87318069  0.80097787     0.14200
H1496       H  0.45107583  0.87467281  0.86153322     0.14800
C1497       C  0.58592759  0.84185232  0.85737120    -0.14800
C1498       C  0.57210319  0.86743834  0.87777149    -0.30000
H1499       H  0.61430385  0.83801728  0.85643369     0.14200
H1500       H  0.54408281  0.87325985  0.87729712     0.14800
C1501       C  0.41269276  0.34001709  0.64241464    -0.14800
C1502       C  0.42604937  0.36542935  0.62169962    -0.30000
H1503       H  0.38442344  0.33565483  0.64318928     0.14200
H1504       H  0.45390633  0.37176240  0.62235582     0.14800
C1505       C  0.42911141  0.64439457  0.34301201    -0.14800
C1506       C  0.41422557  0.66704684  0.31981563    -0.30000
H1507       H  0.45580082  0.64860188  0.35247393     0.14200
H1508       H  0.38656120  0.66483780  0.31279441     0.14800
C1509       C  0.46432730  0.67729870  0.66216110    -0.14800
C1510       C  0.44386125  0.69781615  0.68309993    -0.30000
H1511       H  0.49258023  0.67559945  0.66639310     0.14200
H1512       H  0.41587499  0.70032751  0.67755910     0.14800
C1513       C  0.56593961  0.38693734  0.65359759    -0.14800
C1514       C  0.57577655  0.36979447  0.68334183    -0.30000
H1515       H  0.54530860  0.37618659  0.63690900     0.14200
H1516       H  0.59649226  0.37971162  0.70036328     0.14800
C1517       C  0.65921529  0.47747796  0.66186134    -0.14800
C1518       C  0.67819669  0.45626739  0.68336360    -0.30000
H1519       H  0.66579472  0.50499045  0.65874224     0.14200
H1520       H  0.67035141  0.42913316  0.68702594     0.14800
C1521       C  0.58428030  0.68553010  0.35598208    -0.14800
C1522       C  0.57503037  0.65658929  0.37363469    -0.30000
H1523       H  0.60941516  0.69815765  0.36085841     0.14200
H1524       H  0.54998238  0.64385218  0.36849809     0.14800
C1525       C  0.17278758  0.45997040  0.80598321    -0.14800
C1526       C  0.15174833  0.48012550  0.82664747    -0.30000
H1527       H  0.16906780  0.43171370  0.80544712     0.14200
H1528       H  0.15452107  0.50845262  0.82742746     0.14800
C1529       C  0.31683762  0.42676282  0.64673578    -0.14800
C1530       C  0.34213795  0.44179961  0.62663403    -0.30000
H1531       H  0.30871834  0.39985329  0.64206980     0.14200
H1532       H  0.35264615  0.46737579  0.63355784     0.14800
C1533       C  0.38357047  0.56709792  0.68021785    -0.14800
C1534       C  0.37858403  0.58133465  0.64821953    -0.30000
H1535       H  0.40889517  0.56946046  0.69341038     0.14200
H1536       H  0.35441624  0.57670654  0.63356311     0.14800
C1537       C  0.35225596  0.39172898  0.07013003    -0.14800
C1538       C  0.31989484  0.39639176  0.05660383    -0.30000
H1539       H  0.36670004  0.36746335  0.06578744     0.14200
H1540       H  0.30694819  0.42177763  0.05867220     0.14800
C1541       C  0.58400089  0.65851253  0.81562352    -0.14800
C1542       C  0.56918901  0.63677322  0.83965247    -0.30000
H1543       H  0.61120109  0.65483607  0.80756640     0.14200
H1544       H  0.54323218  0.64259927  0.85018132     0.14800
C1545       C  0.65690016  0.53953245  0.83064292    -0.14800
C1546       C  0.68016338  0.55813092  0.81103495    -0.30000
H1547       H  0.65806157  0.51108389  0.83148745     0.14200
H1548       H  0.67823532  0.58659201  0.81079815     0.14800
C1549       C  0.42816725  0.66153108  0.88121687    -0.14800
C1550       C  0.43977818  0.69452063  0.88504985    -0.30000
H1551       H  0.43492672  0.64633158  0.85790275     0.14200
H1552       H  0.43545908  0.70862703  0.90959680     0.14800
C1553       C  0.34814679  0.58161857  0.86941694    -0.14800
C1554       C  0.31742519  0.58764570  0.85233880    -0.30000
H1555       H  0.36674790  0.56250938  0.85905821     0.14200
H1556       H  0.29867030  0.60694720  0.86184707     0.14800
C1557       C  0.32895050  0.66950938  0.96561851    -0.14800
C1558       C  0.30886476  0.69121457  0.94535983    -0.30000
H1559       H  0.32923322  0.67199560  0.99417457     0.14200
H1560       H  0.30882660  0.68784687  0.91685860     0.14800
C1561       C  0.37044147  0.35270659  0.93147388    -0.14800
C1562       C  0.35032200  0.32729042  0.91652055    -0.30000
H1563       H  0.36338874  0.36373141  0.95696966     0.14200
H1564       H  0.35511053  0.31857555  0.88963798     0.14800
C1565       C  0.35485019  0.42034146  0.82715520    -0.14800
C1566       C  0.37539708  0.43407615  0.85264743    -0.30000
H1567       H  0.35405743  0.39213427  0.82296939     0.14200
H1568       H  0.37462328  0.46192246  0.85872626     0.14800
C1569       C  0.46725182  0.34343480  0.84492264    -0.14800
C1570       C  0.44802657  0.32233929  0.82359551    -0.30000
H1571       H  0.49560882  0.34568222  0.84206393     0.14200
H1572       H  0.41973216  0.32032273  0.82744896     0.14800
C1573       C  0.52932292  0.68021621  0.15525827    -0.14800
C1574       C  0.54917343  0.70266430  0.17450819    -0.30000
H1575       H  0.50153856  0.67668227  0.16091642     0.14200
H1576       H  0.57668800  0.70658439  0.16783274     0.14800
C1577       C  0.68222544  0.32760579  0.05050530    -0.14800
C1578       C  0.66318766  0.35097437  0.03133915    -0.30000
H1579       H  0.68214957  0.32940085  0.07915729     0.14200
H1580       H  0.66266221  0.34992479  0.00269836     0.14800
C1581       C  0.02908551  0.67686967  0.34165124    -0.14800
C1582       C  0.04798762  0.69670733  0.31898584    -0.30000
H1583       H  0.00058704  0.67533552  0.33983264     0.14200
H1584       H  0.07651428  0.69750882  0.32157437     0.14800
C1585       C  0.86600943  0.42176658  0.67283417    -0.14800
C1586       C  0.88165066  0.43075329  0.64243063    -0.30000
H1587       H  0.87353523  0.39800742  0.68668758     0.14200
H1588       H  0.87378040  0.45449509  0.62865340     0.14800
C1589       C  0.97350879  0.33863890  0.65290668    -0.14800
C1590       C  0.95378543  0.31785894  0.67406351    -0.30000
H1591       H  0.00185772  0.34039210  0.65628498     0.14200
H1592       H  0.92551517  0.31644981  0.66965811     0.14800
C1593       C  0.84725641  0.57833166  0.63044559    -0.14800
C1594       C  0.82245141  0.59151935  0.65246936    -0.30000
H1595       H  0.85795921  0.55222694  0.63479018     0.14200
H1596       H  0.81406269  0.61870068  0.65030716     0.14800
C1597       C  0.18395906  0.56743527  0.68605826    -0.14800
C1598       C  0.16265894  0.54725356  0.66584589    -0.30000
H1599       H  0.17881947  0.59537797  0.68865806     0.14200
H1600       H  0.16658223  0.51906423  0.66419882     0.14800
C1601       C  0.94239863  0.69926109  0.81448284    -0.14800
C1602       C  0.96216713  0.67835283  0.83567374    -0.30000
H1603       H  0.91442994  0.70248738  0.81962975     0.14200
H1604       H  0.99040969  0.67592287  0.83185769     0.14800
C1605       C  0.04957082  0.82143638  0.82507382    -0.14800
C1606       C  0.02965881  0.84130406  0.84712242    -0.30000
H1607       H  0.07809321  0.82200384  0.82753118     0.14200
H1608       H  0.00109952  0.84101882  0.84564389     0.14800
C1609       C  0.07228253  0.64163072  0.65680348    -0.14800
C1610       C  0.08633995  0.66261202  0.68208848    -0.30000
H1611       H  0.04642999  0.64742743  0.64588220     0.14200
H1612       H  0.11344778  0.65908999  0.69064497     0.14800
C1613       C  0.94141545  0.69157793  0.61472263    -0.14800
C1614       C  0.93010049  0.65848411  0.61912778    -0.30000
H1615       H  0.93735227  0.70491546  0.58975651     0.14200
H1616       H  0.93668956  0.64404437  0.64292847     0.14800
C1617       C  0.66689413  0.16821615  0.52734435    -0.14800
C1618       C  0.69136614  0.18656464  0.54568001    -0.30000
H1619       H  0.66173122  0.17405549  0.49976614     0.14200
H1620       H  0.69686002  0.17986638  0.57299489     0.14800
C1621       C  0.65627561  0.33813244  0.41336043    -0.14800
C1622       C  0.63312748  0.36007156  0.42948778    -0.30000
H1623       H  0.65407706  0.33274783  0.38527603     0.14200
H1624       H  0.63717672  0.36784763  0.45679580     0.14800
C1625       C  0.85887826  0.32307763  0.57450179    -0.14800
C1626       C  0.87626536  0.35255001  0.56518589    -0.30000
H1627       H  0.86979183  0.30486125  0.59359296     0.14200
H1628       H  0.86451281  0.37037761  0.54613512     0.14800
C1629       C  0.66972989  0.36772843  0.58353140    -0.14800
C1630       C  0.64124648  0.38574585  0.57243440    -0.30000
H1631       H  0.68120128  0.37309857  0.60925904     0.14200
H1632       H  0.62959535  0.38056099  0.54674190     0.14800
C1633       C  0.84759278  0.39543904  0.42917265    -0.14800
C1634       C  0.81472250  0.40132783  0.44083004    -0.30000
H1635       H  0.86040820  0.37037803  0.43404753     0.14200
H1636       H  0.80287229  0.42722769  0.43889888     0.14800
C1637       C  0.17818768  0.92392402  0.65556492    -0.14800
C1638       C  0.15662414  0.94033296  0.63227453    -0.30000
H1639       H  0.18324260  0.89593516  0.65339416     0.14200
H1640       H  0.14891636  0.96748497  0.63652911     0.14800
C1641       C  0.07262159  0.86496226  0.62171357    -0.14800
C1642       C  0.08649090  0.84135257  0.64415836    -0.30000
H1643       H  0.04435456  0.86905964  0.61980109     0.14200
H1644       H  0.11490801  0.83903659  0.64710032     0.14800
C1645       C  0.13005721  0.08522899  0.64258453    -0.14800
C1646       C  0.14944156  0.09496994  0.67064933    -0.30000
H1647       H  0.13350987  0.05951045  0.63066167     0.14200
H1648       H  0.14560752  0.12070764  0.68241735     0.14800
C1649       C  0.05845256  0.19496183  0.68519240    -0.14800
C1650       C  0.03756887  0.17333974  0.66595895    -0.30000
H1651       H  0.08563572  0.19912970  0.67738809     0.14200
H1652       H  0.00993079  0.17007052  0.67243393     0.14800
C1653       C  0.18229151  0.06728556  0.31328019    -0.14800
C1654       C  0.15863823  0.04752098  0.33109486    -0.30000
H1655       H  0.18129675  0.09569732  0.31575269     0.14200
H1656       H  0.15875381  0.01909746  0.32919584     0.14800
C1657       C  0.93231638  0.88586969  0.65118814     0.09200
C1658       C  0.92452626  0.86867781  0.68144835    -0.30000
H1659       H  0.95136028  0.87485272  0.63300845     0.14200
H1660       H  0.90519123  0.87888380  0.69969834     0.14800
C1661       C  0.84549400  0.98271604  0.66913034    -0.14800
C1662       C  0.82476115  0.96307739  0.69034395    -0.30000
H1663       H  0.84228580  0.01111690  0.66767218     0.14200
H1664       H  0.82890001  0.93472838  0.69149372     0.14800
C1665       C  0.83191725  0.20844990  0.43561008    -0.14800
C1666       C  0.85122071  0.18466464  0.45398997    -0.30000
H1667       H  0.83367638  0.20890490  0.40699131     0.14200
H1668       H  0.84934921  0.18378583  0.48257911     0.14800
C1669       C  0.96816081  0.84544667  0.34195088    -0.14800
C1670       C  0.94703183  0.82386686  0.32297424    -0.30000
H1671       H  0.99575794  0.84864906  0.33528528     0.14200
H1672       H  0.91980991  0.82013123  0.33087056     0.14800
C1673       C  0.68749732  0.69358327  0.44515636    -0.14800
C1674       C  0.66568716  0.67397106  0.46541211    -0.30000
H1675       H  0.69142768  0.68657721  0.41762922     0.14200
H1676       H  0.66254871  0.67959373  0.49333792     0.14800
C1677       C  0.81226543  0.68735420  0.55272021    -0.14800
C1678       C  0.83198759  0.66486219  0.53312543    -0.30000
H1679       H  0.81224173  0.68476846  0.58129139     0.14200
H1680       H  0.83229134  0.66645603  0.50451860     0.14800
C1681       C  0.65123872  0.82979934  0.58421155    -0.14800
C1682       C  0.63085190  0.85548920  0.57009559    -0.30000
H1683       H  0.64678982  0.82068103  0.61096713     0.14200
H1684       H  0.63746138  0.86689372  0.54472711     0.14800
C1685       C  0.85945917  0.82612530  0.42615961    -0.14800
C1686       C  0.87661181  0.85599130  0.43513489    -0.30000
H1687       H  0.86958743  0.80861904  0.40597666     0.14200
H1688       H  0.86560741  0.87325341  0.45513948     0.14800
C1689       C  0.82527789  0.87371273  0.58726844    -0.14800
C1690       C  0.84993009  0.89505398  0.57367650    -0.30000
H1691       H  0.82138103  0.87243655  0.61560059     0.14200
H1692       H  0.85612222  0.89447858  0.54575829     0.14800
C1693       C  0.64861195  0.89028682  0.42423834    -0.14800
C1694       C  0.68257380  0.89305806  0.43399987    -0.30000
H1695       H  0.63310678  0.86793428  0.43258437     0.14200
H1696       H  0.69710285  0.91682044  0.42824185     0.14800
C1697       C  0.68176608  0.99128972  0.33544480    -0.14800
C1698       C  0.65019972  0.97857479  0.32671643    -0.30000
H1699       H  0.68744205  0.99667373  0.36308538     0.14200
H1700       H  0.64465770  0.97383436  0.29894363     0.14800
C1701       C  0.68197488  0.06964458  0.18541839    -0.14800
C1702       C  0.65752252  0.05034975  0.16776163    -0.30000
H1703       H  0.68141319  0.09807797  0.18320173     0.14200
H1704       H  0.65749101  0.02190574  0.16921167     0.14800
C1705       C  0.83325576  0.10666447  0.33726678    -0.14800
C1706       C  0.85672716  0.09272931  0.36033558    -0.30000
H1707       H  0.82717641  0.13451951  0.33755555     0.14200
H1708       H  0.86493948  0.06551821  0.35774034     0.14800
C1709       C  0.82861441  0.94791350  0.12700151    -0.14800
C1710       C  0.79969987  0.93774410  0.14552384    -0.30000
H1711       H  0.84512996  0.96874842  0.13737165     0.14200
H1712       H  0.78269795  0.91692475  0.13605612     0.14800
C1713       C  0.87722045  0.93653488  0.35799619    -0.14800
C1714       C  0.86165113  0.92870361  0.32708906    -0.30000
H1715       H  0.87023154  0.96031541  0.37225537     0.14200
H1716       H  0.86828339  0.90482061  0.31291463     0.14800
C1717       C  0.87640111  0.08415217  0.14945882    -0.14800
C1718       C  0.88272741  0.06951033  0.18099917    -0.30000
H1719       H  0.85067787  0.08208619  0.13704364     0.14200
H1720       H  0.90930760  0.06913056  0.19171462     0.14800
C1721       C  0.04621511  0.32351116  0.17681070    -0.14800
C1722       C  0.02711897  0.34571462  0.15630572    -0.30000
H1723       H  0.07412113  0.31995616  0.17155258     0.14200
H1724       H  0.99897576  0.34884230  0.16032825     0.14800
C1725       C  0.94315288  0.19711346  0.18464527    -0.14800
C1726       C  0.96252801  0.17978086  0.16000221    -0.30000
H1727       H  0.91457534  0.19589312  0.18331175     0.14200
H1728       H  0.99111141  0.18048258  0.16055706     0.14800
C1729       C  0.07760695  0.14886116  0.35276472    -0.14800
C1730       C  0.08089398  0.16389781  0.32057945    -0.30000
H1731       H  0.06263341  0.16212543  0.37315012     0.14200
H1732       H  0.09614880  0.15148752  0.29989769     0.14800
C1733       C  0.90865378  0.35214867  0.32855416    -0.14800
C1734       C  0.92552186  0.37552032  0.34959792    -0.30000
H1735       H  0.88060164  0.35459333  0.32337282     0.14200
H1736       H  0.95293544  0.37132295  0.35679369     0.14800
C1737       C  0.97701016  0.18068073  0.37456314    -0.14800
C1738       C  0.96169412  0.15174308  0.38719627    -0.30000
H1739       H  0.00546577  0.18041775  0.37414340     0.14200
H1740       H  0.97917531  0.13007477  0.39381896     0.14800
C1741       C  0.06634561  0.35579945  0.39375719    -0.14800
C1742       C  0.06611772  0.35628873  0.35846876    -0.30000
H1743       H  0.05098657  0.33638509  0.40789789     0.14200
H1744       H  0.08223973  0.37491246  0.34411770     0.14800
C1745       C  0.81683554  0.56714595  0.18379393    -0.14800
C1746       C  0.83748079  0.54693300  0.16278751    -0.30000
H1747       H  0.82254459  0.59490085  0.18683266     0.14200
H1748       H  0.83312310  0.51888138  0.16054471     0.14800
C1749       C  0.82399909  0.45865076  0.30927505    -0.14800
C1750       C  0.84678551  0.47781816  0.32896272    -0.30000
H1751       H  0.82556223  0.43018290  0.31003518     0.14200
H1752       H  0.84625322  0.50628995  0.32839589     0.14800
C1753       C  0.68244398  0.42620553  0.14774089    -0.14800
C1754       C  0.65591093  0.43936636  0.12773221    -0.30000
H1755       H  0.69160951  0.39944292  0.14392003     0.14200
H1756       H  0.64446278  0.46477565  0.13401407     0.14800
C1757       C  0.68645582  0.58860597  0.35541468    -0.14800
C1758       C  0.65680942  0.58012044  0.37318227    -0.30000
H1759       H  0.70396814  0.60898149  0.36491201     0.14200
H1760       H  0.63963394  0.55978621  0.36286769     0.14800
C1761       C  0.61560042  0.57422506  0.18035445    -0.14800
C1762       C  0.61824245  0.58533495  0.14686530    -0.30000
H1763       H  0.59147368  0.57863727  0.19504642     0.14200
H1764       H  0.64110082  0.57847753  0.13108641     0.14800
C1765       C  0.62013065  0.44066768  0.35017081    -0.14800
C1766       C  0.64164900  0.42676386  0.32566169    -0.30000
H1767       H  0.61965589  0.46868098  0.35543848     0.14200
H1768       H  0.64362184  0.39846030  0.32255342     0.14800
C1769       C  0.31305471  0.33291228  0.55431025    -0.14800
C1770       C  0.33383338  0.35225364  0.53282326    -0.30000
H1771       H  0.31003547  0.34024985  0.58187580     0.14200
H1772       H  0.33644236  0.34607799  0.50495726     0.14800
C1773       C  0.17077680  0.35249982  0.46984150    -0.14800
C1774       C  0.18731756  0.32694343  0.45110688    -0.30000
H1775       H  0.17318675  0.35396420  0.49836802     0.14200
H1776       H  0.18460500  0.32646309  0.42253583     0.14800
C1777       C  0.36990246  0.16467895  0.43402359    -0.14800
C1778       C  0.34766893  0.18897653  0.42059429    -0.30000
H1779       H  0.36562352  0.15393814  0.46019328     0.14200
H1780       H  0.34991649  0.19730627  0.39328851     0.14800
C1781       C  0.14261619  0.19821379  0.57885590    -0.14800
C1782       C  0.12533848  0.16887850  0.56879550    -0.30000
H1783       H  0.13268782  0.21503529  0.59971732     0.14200
H1784       H  0.13621222  0.15236455  0.54808533     0.14800
C1785       C  0.32551548  0.14881085  0.59443879    -0.14800
C1786       C  0.35658563  0.13403847  0.58618240    -0.30000
H1787       H  0.31122415  0.14088800  0.61783043     0.14200
H1788       H  0.37063529  0.14219476  0.56266396     0.14800
C1789       C  0.15694057  0.13099921  0.43018991    -0.14800
C1790       C  0.19036334  0.12612558  0.44082922    -0.30000
H1791       H  0.14328609  0.15538098  0.43615151     0.14200
H1792       H  0.20293047  0.10064041  0.43808698     0.14800
C1793       C  0.44887939  0.20462526  0.32909244    -0.14800
C1794       C  0.46767929  0.18128418  0.34836623    -0.30000
H1795       H  0.42120479  0.20902880  0.33489987     0.14200
H1796       H  0.49554989  0.17712273  0.34343301     0.14800
C1797       C  0.55383364  0.32628968  0.32096279    -0.14800
C1798       C  0.53450239  0.34477581  0.34457790    -0.30000
H1799       H  0.58242978  0.32711225  0.32238497     0.14200
H1800       H  0.50590899  0.34443293  0.34390244     0.14800
C1801       C  0.57148750  0.14799250  0.15633223    -0.14800
C1802       C  0.58692871  0.16986469  0.17994197    -0.30000
H1803       H  0.54446005  0.15251878  0.14796732     0.14200
H1804       H  0.61481557  0.16751754  0.18600143     0.14800
C1805       C  0.42759627  0.38083140  0.15402065    -0.14800
C1806       C  0.42009778  0.36449634  0.18477852    -0.30000
H1807       H  0.44622705  0.36886481  0.13587474     0.14200
H1808       H  0.40166856  0.37575553  0.20345303     0.14800
C1809       C  0.55923041  0.32898147  0.11911116    -0.14800
C1810       C  0.57260237  0.36128023  0.12346052    -0.30000
H1811       H  0.55848247  0.31734196  0.09291468     0.14200
H1812       H  0.57062070  0.37473530  0.14867136     0.14800
C1813       C  0.43190362  0.16980178  0.14579722    -0.14800
C1814       C  0.43567719  0.16941481  0.11074648    -0.30000
H1815       H  0.41397445  0.15183216  0.15877187     0.14200
H1816       H  0.45288920  0.18809409  0.09780922     0.14800
C1817       C  0.32128383  0.56599179  0.30731915    -0.14800
C1818       C  0.34344456  0.54696274  0.32780260    -0.30000
H1819       H  0.32408504  0.59434444  0.30625550     0.14200
H1820       H  0.34165517  0.51856261  0.32893130     0.14800
C1821       C  0.31638931  0.45640789  0.18608467    -0.14800
C1822       C  0.33803131  0.47699129  0.16676036    -0.30000
H1823       H  0.32166646  0.42844764  0.18805761     0.14200
H1824       H  0.33399712  0.50518038  0.16558637     0.14800
C1825       C  0.18335567  0.59536227  0.14297017    -0.14800
C1826       C  0.15866638  0.58180384  0.12100695    -0.30000
H1827       H  0.19141005  0.62253610  0.14030427     0.14200
H1828       H  0.14801377  0.55588039  0.12595431     0.14800
C1829       C  0.18275836  0.42957372  0.35092827    -0.14800
C1830       C  0.15099059  0.43315163  0.36678136    -0.30000
H1831       H  0.20283396  0.41229814  0.36158055     0.14200
H1832       H  0.13134807  0.45054998  0.35536224     0.14800
C1833       C  0.14192787  0.60011012  0.32606005    -0.14800
C1834       C  0.12192961  0.58720288  0.35222909    -0.30000
H1835       H  0.14230177  0.62816110  0.32094721     0.14200
H1836       H  0.12304097  0.55963102  0.35931579     0.14800
C1837       C  0.11239846  0.45245996  0.18157822    -0.14800
C1838       C  0.11575469  0.44041112  0.14850821    -0.30000
H1839       H  0.08790377  0.44896551  0.19585653     0.14200
H1840       H  0.13907871  0.44639631  0.13314873     0.14800
C1841       C  0.82619480  0.85351090  0.03466397    -0.14800
C1842       C  0.80473114  0.83264967  0.05389088    -0.30000
H1843       H  0.83078104  0.84814876  0.00688961     0.14200
H1844       H  0.79926868  0.83940361  0.08122093     0.14800
C1845       C  0.68499006  0.83694466  0.94677449    -0.14800
C1846       C  0.66506741  0.85858649  0.96708735    -0.30000
H1847       H  0.68577440  0.84089141  0.91836237     0.14200
H1848       H  0.66398456  0.85567000  0.99557108     0.14800
C1849       C  0.64213472  0.69480838  0.07440746    -0.14800
C1850       C  0.62517191  0.66467670  0.06661205    -0.30000
H1851       H  0.63227017  0.71273244  0.09436896     0.14200
H1852       H  0.63583542  0.64687016  0.04689007     0.14800
C1853       C  0.84652113  0.69680523  0.91135005    -0.14800
C1854       C  0.86668133  0.67071488  0.92508838    -0.30000
H1855       H  0.85039571  0.70548836  0.88435583     0.14200
H1856       H  0.86037091  0.65968798  0.95070820     0.14800
C1857       C  0.67030749  0.65242675  0.90911781    -0.14800
C1858       C  0.64681697  0.63009070  0.92306324    -0.30000
H1859       H  0.67348398  0.65409177  0.88065879     0.14200
H1860       H  0.64163479  0.62974211  0.95123984     0.14800
C1861       C  0.81776972  0.63091069  0.05523687    -0.14800
C1862       C  0.85017402  0.63508515  0.06870974    -0.30000
H1863       H  0.80458159  0.60578345  0.05749956     0.14200
H1864       H  0.86490729  0.65899236  0.06413433     0.14800
C1865       C  0.30450331  0.83917673  0.44591248    -0.14800
C1866       C  0.32549645  0.86033410  0.46550840    -0.30000
H1867       H  0.30323696  0.84266656  0.41745948     0.14200
H1868       H  0.32702845  0.85776901  0.49401185     0.14800
C1869       C  0.18694317  0.83078865  0.55600841    -0.14800
C1870       C  0.16730727  0.85249383  0.53558944    -0.30000
H1871       H  0.18908654  0.83554493  0.58422153     0.14200
H1872       H  0.16601247  0.84890881  0.50716769     0.14800
C1873       C  0.14497757  0.69737895  0.41555394    -0.14800
C1874       C  0.12534744  0.67161383  0.43017611    -0.30000
H1875       H  0.14034574  0.70565482  0.38851375     0.14200
H1876       H  0.13238044  0.66093585  0.45581771     0.14800
C1877       C  0.35371727  0.69698993  0.57602881    -0.14800
C1878       C  0.36947074  0.66552656  0.57063262    -0.30000
H1879       H  0.36426630  0.71579928  0.59471108     0.14200
H1880       H  0.35811911  0.64715327  0.55188539     0.14800
C1881       C  0.14732625  0.63394245  0.57058269    -0.14800
C1882       C  0.17980479  0.63027426  0.55713984    -0.30000
H1883       H  0.13209461  0.65767522  0.56601376     0.14200
H1884       H  0.19359019  0.60535333  0.55931981     0.14800
C1885       C  0.32353134  0.65572166  0.40927666    -0.14800
C1886       C  0.34841018  0.63451295  0.42309310    -0.30000
H1887       H  0.31967532  0.65702940  0.38086279     0.14200
H1888       H  0.35435138  0.63486321  0.45115099     0.14800
loop_ 
_geom_bond_atom_site_label_1 
_geom_bond_atom_site_label_2 
_geom_bond_distance 
_geom_bond_site_symmetry_2 
_ccdc_geom_bond_type 
O1           C17   1.273       .  A
O1           Zn7   2.007       .  S
C2           O18   1.265       .  A
C2           O15   1.279       .  A
C2         C1873   1.472       .  S
O3           C16   1.273       .  A
O3          Cd10   2.042       .  S
O4           C22   1.275       .  A
O4          Cd13   2.079       .  S
O5           C19   1.273       .  A
O5           Cd9   2.037       .  S
O6           C17   1.276       .  A
O6           Cd9   2.071       .  S
Zn7          O18   1.948       .  S
Zn7          O20   2.005       .  S
Zn7          O12   1.885       .  S
O8           C19   1.282       .  A
O8          Cd13   2.087       .  S
Cd9          O11   2.095       .  S
Cd9          O12   1.970       .  S
Cd10         O14   2.027       .  S
Cd10         O23   2.028       .  S
Cd10         O12   1.941       .  S
O11          C21   1.278       .  A
O12         Cd13   1.976       .  S
Cd13         O15   2.110       .  S
O14          C21   1.270       .  A
C16          O20   1.277       .  A
C16        C1882   1.459       .  S
C17        C1869   1.461       .  S
C19        C1865   1.464       .  S
C21        C1877   1.474       .  S
C22          O23   1.270       .  A
C22        C1885   1.462       .  S
O24          C40   1.266       .  A
O24         Zn30   1.959   1_556  S
C25          O41   1.276       .  A
C25          O38   1.276       .  A
C25        C1842   1.471       .  S
O26          C39   1.273       .  A
O26         Cd33   2.038       .  S
O27          C45   1.277       .  A
O27         Cd36   2.082       .  S
O28          C42   1.283       .  A
O28         Cd32   2.088       .  S
O29          C40   1.280       .  A
O29         Cd32   2.111       .  S
Zn30         O41   2.034       .  S
Zn30         O43   2.011       .  S
Zn30         O35   1.891   1_554  S
O31          C42   1.271       .  A
O31         Cd36   2.032   1_556  S
Cd32         O34   2.080       .  S
Cd32         O35   1.972       .  S
Cd33         O37   2.034   1_554  S
Cd33         O46   2.023       .  S
Cd33         O35   1.943   1_554  S
O34          C44   1.275       .  A
O35         Cd36   1.970   1_556  S
Cd36         O38   2.072       .  S
O37          C44   1.271       .  A
C39          O43   1.278       .  A
C39        C1861   1.458       .  S
C40        C1853   1.474       .  S
C42        C1845   1.463       .  S
C44        C1857   1.463       .  S
C45          O46   1.269       .  A
C45        C1849   1.467       .  S
O47          C63   1.267       .  A
O47         Zn53   1.970       .  S
C48          O64   1.275       .  A
C48          O61   1.276       .  A
C48        C1821   1.466       .  S
O49          C62   1.273       .  A
O49         Cd56   2.043       .  S
O50          C68   1.279       .  A
O50         Cd59   2.101       .  S
O51          C65   1.281       .  A
O51         Cd55   2.083       .  S
O52          C63   1.280       .  A
O52         Cd55   2.115       .  S
Zn53         O64   2.025       .  S
Zn53         O66   2.007       .  S
Zn53         O58   1.892       .  S
O54          C65   1.274       .  A
O54         Cd59   2.044       .  S
Cd55         O57   2.074       .  S
Cd55         O58   1.976       .  S
Cd56         O60   2.036       .  S
Cd56         O69   2.029       .  S
Cd56         O58   1.950       .  S
O57          C67   1.274       .  A
O58         Cd59   1.976       .  S
Cd59         O61   2.071       .  S
O60          C67   1.271       .  A
C62          O66   1.279       .  A
C62        C1837   1.459       .  S
C63        C1825   1.479       .  S
C65        C1817   1.465       .  S
C67        C1833   1.462       .  S
C68          O69   1.269       .  A
C68        C1829   1.477       .  S
O70          C86   1.268       .  A
O70         Zn76   1.963       .  S
C71          O87   1.274       .  A
C71          O84   1.280       .  A
C71        C1793   1.463       .  S
O72          C85   1.275       .  A
O72         Cd79   2.038       .  S
O73          C91   1.280       .  A
O73         Cd82   2.091       .  S
O74          C88   1.281       .  A
O74         Cd78   2.083       .  S
O75          C86   1.281       .  A
O75         Cd78   2.112       .  S
Zn76         O87   1.997       .  S
Zn76         O89   1.992       .  S
Zn76         O81   1.873       .  S
O77          C88   1.272       .  A
O77         Cd82   2.036       .  S
Cd78         O80   2.091       .  S
Cd78         O81   1.953       .  S
Cd79         O83   2.032       .  S
Cd79         O92   2.048       .  S
Cd79         O81   1.930       .  S
O80          C90   1.277       .  A
O81         Cd82   1.948       .  S
Cd82         O84   2.079       .  S
O83          C90   1.269       .  A
C85          O89   1.271       .  A
C85        C1813   1.459       .  S
C86        C1802   1.472       .  S
C88        C1797   1.464       .  S
C90        C1809   1.462       .  S
C91          O92   1.273       .  A
C91        C1806   1.474       .  S
O93         C109   1.268       .  A
O93         Zn99   1.958       .  S
C94         O110   1.273       .  A
C94         O107   1.279       .  A
C94        C1769   1.458       .  S
O95         C108   1.270       .  A
O95        Cd102   2.034       .  S
O96         C114   1.279       .  A
O96        Cd105   2.095       .  S
O97         C111   1.282       .  A
O97        Cd101   2.094       .  S
O98         C109   1.280       .  A
O98        Cd101   2.105       .  S
Zn99        O110   1.998       .  S
Zn99        O112   2.015       .  S
Zn99        O104   1.874       .  S
O100        C111   1.271       .  A
O100       Cd105   2.043       .  S
Cd101       O103   2.087       .  S
Cd101       O104   1.958       .  S
Cd102       O106   2.034       .  S
Cd102       O115   2.019       .  S
Cd102       O104   1.930       .  S
O103        C113   1.278       .  A
O104       Cd105   1.962       .  S
Cd105       O107   2.070       .  S
O106        C113   1.270       .  A
C108        O112   1.274       .  A
C108       C1785   1.454       .  S
C109       C1778   1.468       .  S
C111       C1774   1.470       .  S
C113       C1790   1.459       .  S
C114        O115   1.270       .  A
C114       C1781   1.470       .  S
O116        C132   1.275       .  A
O116       Zn122   2.017       .  S
C117        O133   1.267       .  A
C117        O130   1.279       .  A
C117       C1753   1.473       .  S
O118        C131   1.273       .  A
O118       Cd125   2.048       .  S
O119        C137   1.274       .  A
O119       Cd128   2.070       .  S
O120        C134   1.273       .  A
O120       Cd124   2.048       .  S
O121        C132   1.278       .  A
O121       Cd124   2.074       .  S
Zn122       O133   1.961       .  S
Zn122       O135   2.014       .  S
Zn122       O127   1.892       .  S
O123        C134   1.281       .  A
O123       Cd128   2.086       .  S
Cd124       O126   2.099       .  S
Cd124       O127   1.977       .  S
Cd125       O129   2.023       .  S
Cd125       O138   2.033       .  S
Cd125       O127   1.948       .  S
O126        C136   1.279       .  A
O127       Cd128   1.976       .  S
Cd128       O130   2.108       .  S
O129        C136   1.269       .  A
C131        O135   1.278       .  A
C131       C1761   1.463       .  S
C132       C1745   1.464       .  S
C134       C1749   1.468       .  S
C136       C1757   1.475       .  S
C137        O138   1.271       .  A
C137       C1766   1.460       .  S
O139        C155   1.274       .  A
O139       Zn145   2.014       .  S
C140        O156   1.269       .  A
C140        O153   1.284       .  A
C140       C1733   1.473       .  S
O141        C154   1.276       .  A
O141       Cd148   2.047       .  S
O142        C160   1.276       .  A
O142       Cd151   2.117       .  S
O143        C157   1.274       .  A
O143       Cd147   2.048   1_655  S
O144        C155   1.282       .  A
O144       Cd147   2.096       .  S
Zn145       O156   1.953   1_455  S
Zn145       O158   2.007       .  S
Zn145       O150   1.877   1_455  S
O146        C157   1.286       .  A
O146       Cd151   2.107       .  S
Cd147       O149   2.095       .  S
Cd147       O150   1.952   1_455  S
Cd148       O152   2.052       .  S
Cd148       O161   2.047   1_455  S
Cd148       O150   1.952   1_455  S
O149        C159   1.281       .  A
O150       Cd151   1.986       .  S
Cd151       O153   2.124       .  S
O152        C159   1.274       .  A
C154        O158   1.273       .  A
C154       C1742   1.467       .  S
C155       C1721   1.474       .  S
C157       C1725   1.473       .  S
C159       C1730   1.475       .  S
C160        O161   1.268       .  A
C160       C1737   1.474       .  S
O162        C178   1.266       .  A
O162       Zn168   1.935       .  S
C163        O179   1.268   1_565  A
C163        O176   1.290       .  A
C163       C1697   1.474       .  S
O164        C177   1.269       .  A
O164       Cd171   2.035       .  S
O165        C183   1.288       .  A
O165       Cd174   2.147       .  S
O166        C180   1.283       .  A
O166       Cd170   2.104       .  S
O167        C178   1.282       .  A
O167       Cd170   2.121       .  S
Zn168       O179   1.952       .  S
Zn168       O181   1.997   1_545  S
Zn168       O173   1.872       .  S
O169        C180   1.269       .  A
O169       Cd174   2.037   1_545  S
Cd170       O172   2.085       .  S
Cd170       O173   1.968       .  S
Cd171       O175   2.029   1_565  S
Cd171       O184   1.994       .  S
Cd171       O173   1.928   1_565  S
O172        C182   1.277       .  A
O173       Cd174   1.973   1_545  S
Cd174       O176   2.130       .  S
O175        C182   1.269       .  A
C177        O181   1.270       .  A
C177       C1714   1.451       .  S
C178       C1705   1.472       .  S
C180       C1701   1.472       .  S
C182       C1718   1.458       .  S
C183        O184   1.267       .  A
C183       C1710   1.486       .  S
O185        C201   1.274       .  A
O185       Zn191   2.018       .  S
C186        O202   1.265       .  A
C186        O199   1.280       .  A
C186       C1681   1.471       .  S
O187        C200   1.274       .  A
O187       Cd194   2.056       .  S
O188        C206   1.275       .  A
O188       Cd197   2.079       .  S
O189        C203   1.273       .  A
O189       Cd193   2.049       .  S
O190        C201   1.280       .  A
O190       Cd193   2.089       .  S
Zn191       O202   1.948       .  S
Zn191       O204   2.016       .  S
Zn191       O196   1.891       .  S
O192        C203   1.283       .  A
O192       Cd197   2.096       .  S
Cd193       O195   2.104       .  S
Cd193       O196   1.977       .  S
Cd194       O198   2.018       .  S
Cd194       O207   2.040       .  S
Cd194       O196   1.950       .  S
O195        C205   1.280       .  A
O196       Cd197   1.978       .  S
Cd197       O199   2.110       .  S
O198        C205   1.269       .  A
C200        O204   1.277       .  A
C200       C1694   1.467       .  S
C201       C1673   1.471       .  S
C203       C1677   1.471       .  S
C205       C1685   1.474       .  S
C206        O207   1.271       .  A
C206       C1689   1.464       .  S
C208        C209   1.542       .  S
C208        C214   1.524       .  S
C208        C212   1.532       .  S
C208       C1669   1.510       .  S
C209        H216   1.085   1_655  S
C209        C210   1.377       .  D
C210        C281   1.486       .  S
C210        C211   1.551       .  S
C211        C215   1.531       .  S
C211        C213   1.542       .  S
C211        H217   1.111       .  S
C212        H218   1.085       .  S
C212        C213   1.360       .  D
C213       C1686   1.480       .  S
C214        H219   1.086       .  S
C214        C215   1.359       .  D
C215       C1713   1.477       .  S
C220        C221   1.524       .  S
C220        C226   1.543       .  S
C220        C224   1.557       .  S
C220       C1666   1.519       .  S
C221        H228   1.087       .  S
C221        C222   1.355       .  D
C222        C223   1.540       .  S
C222       C1706   1.475       .  S
C223        C227   1.537       .  S
C223        C225   1.550       .  S
C223        H229   1.111       .  S
C224        H230   1.086       .  S
C224        C225   1.376       .  D
C225        C295   1.513       .  S
C226        H231   1.086       .  S
C226        C227   1.370       .  D
C227       C1738   1.475       .  S
C232        C233   1.529       .  S
C232        C238   1.528       .  S
C232        C236   1.546       .  S
C232       C1661   1.509       .  S
C233        H240   1.085       .  S
C233        C234   1.361       .  D
C234        C235   1.544       .  S
C234       C1657   1.482       .  S
C235        C239   1.534       .  S
C235        C237   1.557       .  S
C235        H241   1.110       .  S
C236        H242   1.087   1_565  S
C236        C237   1.378       .  D
C237        C301   1.501       .  S
C238        H243   1.088       .  S
C238        C239   1.354       .  D
C239       C1690   1.472       .  S
C244        C245   1.541       .  S
C244        C250   1.527       .  S
C244        C248   1.528       .  S
C244       C1654   1.509       .  S
C245        H252   1.086       .  S
C245        C246   1.376       .  D
C246        C296   1.491       .  S
C246        C247   1.557       .  S
C247        C251   1.536       .  S
C247        C249   1.547       .  S
C247        H253   1.111       .  S
C248        H254   1.084       .  S
C248        C249   1.362       .  D
C249       C1729   1.487       .  S
C250        H255   1.086       .  S
C250        C251   1.357       .  D
C251       C1789   1.478       .  S
C256        C257   1.531       .  S
C256        C262   1.526       .  S
C256        C260   1.547       .  S
C256       C1650   1.511       .  S
C257        H264   1.085       .  S
C257        C258   1.360       .  D
C258        C259   1.539       .  S
C258       C1782   1.475       .  S
C259        C263   1.531       .  S
C259        C261   1.554       .  S
C259        H265   1.111       .  S
C260        H266   1.085       .  S
C260        C261   1.380       .  D
C261        C300   1.497       .  S
C262        H267   1.087       .  S
C262        C263   1.357       .  D
C263       C1645   1.478       .  S
C268        C269   1.546       .  S
C268        C274   1.522       .  S
C268        C272   1.530       .  S
C268       C1870   1.511       .  S
C269        H276   1.085       .  S
C269        C270   1.379       .  D
C270        C298   1.494       .  S
C270        C271   1.554       .  S
C271        C275   1.534       .  S
C271        C273   1.545       .  S
C271        H277   1.111       .  S
C272        H278   1.087       .  S
C272        C273   1.359       .  D
C273       C1638   1.477       .  S
C274        H279   1.088       .  S
C274        C275   1.354       .  D
C275       C1641   1.466       .  S
O280        C296   1.280       .  A
O280       Zn286   2.076   1_455  S
C281        O297   1.280       .  A
C281        O294   1.277       .  A
O282        C295   1.286       .  A
O282       Cd289   2.149       .  S
O283        C301   1.277       .  A
O283       Cd292   2.086       .  S
O284        C298   1.279       .  A
O284       Cd288   2.119   1_565  S
O285        C296   1.278       .  A
O285       Cd288   2.100       .  S
Zn286       O297   2.070   1_545  S
Zn286       O299   2.063       .  S
Zn286       O291   1.981   1_655  S
O287        C298   1.278       .  A
O287       Cd292   2.106   1_455  S
Cd288       O290   2.078       .  S
Cd288       O291   2.024       .  S
Cd289       O293   2.133   1_655  S
Cd289       O302   2.135       .  S
Cd289       O291   2.050   1_655  S
O290        C300   1.277       .  A
O291       Cd292   2.025   1_445  S
Cd292       O294   2.095       .  S
O293        C300   1.283       .  A
C295        O299   1.280       .  A
C301        O302   1.284   1_565  A
O303        C319   1.268       .  A
O303       Zn309   1.960       .  S
C304        O320   1.276       .  A
C304        O317   1.282       .  A
C304       C1618   1.469       .  S
O305        C318   1.271       .  A
O305       Cd312   2.043       .  S
O306        C324   1.279       .  A
O306       Cd315   2.095       .  S
O307        C321   1.283       .  A
O307       Cd311   2.109       .  S
O308        C319   1.283       .  A
O308       Cd311   2.123       .  S
Zn309       O320   2.013       .  S
Zn309       O322   2.011       .  S
Zn309       O314   1.895       .  S
O310        C321   1.274       .  A
O310       Cd315   2.060       .  S
Cd311       O313   2.072       .  S
Cd311       O314   1.970       .  S
Cd312       O316   2.047       .  S
Cd312       O325   2.028       .  S
Cd312       O314   1.954       .  S
O313        C323   1.275       .  A
O314       Cd315   1.967       .  S
Cd315       O317   2.093       .  S
O316        C323   1.270       .  A
C318        O322   1.272       .  A
C318       C1629   1.454       .  S
C319       C1621   1.475       .  S
C321       C1665   1.484       .  S
C323       C1634   1.461       .  S
C324        O325   1.271       .  A
C324       C1625   1.472       .  S
O326        C342   1.265       .  A
O326       Zn332   1.948   1_455  S
C327        O343   1.274       .  A
C327        O340   1.278       .  A
C327       C1601   1.464       .  S
O328        C341   1.275       .  A
O328       Cd335   2.059       .  S
O329        C347   1.279       .  A
O329       Cd338   2.096       .  S
O330        C344   1.282       .  A
O330       Cd334   2.085       .  S
O331        C342   1.280       .  A
O331       Cd334   2.113       .  S
Zn332       O343   2.008       .  S
Zn332       O345   2.001       .  S
Zn332       O337   1.881   1_655  S
O333        C344   1.273       .  A
O333       Cd338   2.046   1_455  S
Cd334       O336   2.067       .  S
Cd334       O337   1.971       .  S
Cd335       O339   2.036   1_655  S
Cd335       O348   2.029       .  S
Cd335       O337   1.947   1_655  S
O336        C346   1.274       .  A
O337       Cd338   1.969   1_455  S
Cd338       O340   2.077       .  S
O339        C346   1.272       .  A
C341        O345   1.277       .  A
C341       C1613   1.463       .  S
C342       C1610   1.473       .  S
C344       C1605   1.466       .  S
C346       C1642   1.459       .  S
C347        O348   1.270       .  A
C347       C1658   1.474       .  S
C349        C350   1.527       .  S
C349        C355   1.523       .  S
C349        C353   1.544       .  S
C349       C1598   1.510       .  S
C350        H357   1.087       .  S
C350        C351   1.358       .  D
C351        C352   1.546       .  S
C351       C1609   1.478       .  S
C352        C356   1.536       .  S
C352        C354   1.555       .  S
C352        H358   1.111       .  S
C353        H359   1.086       .  S
C353        C354   1.377       .  D
C354        C439   1.493       .  S
C355        H360   1.086       .  S
C355        C356   1.360       .  D
C356       C1881   1.477       .  S
C361        C362   1.530       .  S
C361        C367   1.527       .  S
C361        C365   1.548       .  S
C361       C1773   1.512       .  S
C362        H369   1.084       .  S
C362        C363   1.363       .  D
C363        C364   1.545       .  S
C363       C1830   1.485       .  S
C364        C368   1.532       .  S
C364        C366   1.548       .  S
C364        H370   1.111       .  S
C365        H371   1.085       .  S
C365        C366   1.379       .  D
C366        C437   1.491       .  S
C367        H372   1.088       .  S
C367        C368   1.350       .  D
C368       C1741   1.459       .  S
C373        C374   1.547       .  S
C373        C379   1.524       .  S
C373        C377   1.527       .  S
C373       C1678   1.514       .  S
C374        H381   1.085       .  S
C374        C375   1.380       .  D
C375        C442   1.504       .  S
C375        C376   1.558       .  S
C376        C380   1.539       .  S
C376        C378   1.545       .  S
C376        H382   1.111       .  S
C377        H383   1.087       .  S
C377        C378   1.358       .  D
C378       C1593   1.480       .  S
C379        H384   1.086       .  S
C379        C380   1.360       .  D
C380       C1614   1.479       .  S
C385        C386   1.545       .  S
C385        C391   1.527       .  S
C385        C389   1.529       .  S
C385       C1750   1.512       .  S
C386        H393   1.085       .  S
C386        C387   1.380       .  D
C387        C436   1.505       .  S
C387        C388   1.559       .  S
C388        C392   1.537       .  S
C388        C390   1.543       .  S
C388        H394   1.111       .  S
C389        H395   1.087       .  S
C389        C390   1.356       .  D
C390       C1734   1.477       .  S
C391        H396   1.086       .  S
C391        C392   1.361       .  D
C392       C1633   1.475       .  S
C397        C398   1.532       .  S
C397        C403   1.529       .  S
C397        C401   1.544       .  S
C397       C1589   1.514       .  S
C398        H405   1.085       .  S
C398        C399   1.363       .  D
C399        C400   1.541       .  S
C399       C1626   1.479       .  S
C400        C404   1.530       .  S
C400        C402   1.549       .  S
C400        H406   1.111       .  S
C401        H407   1.085   1_655  S
C401        C402   1.376       .  D
C402        C422   1.488       .  S
C403        H408   1.086       .  S
C403        C404   1.361       .  D
C404       C1586   1.478       .  S
C409        C410   1.544       .  S
C409        C415   1.525       .  S
C409        C413   1.526       .  S
C409       C1581   1.508       .  S
C410        H417   1.085   1_455  S
C410        C411   1.379       .  D
C411        C441   1.501       .  S
C411        C412   1.558       .  S
C412        C416   1.535       .  S
C412        C414   1.546       .  S
C412        H418   1.111       .  S
C413        H419   1.087       .  S
C413        C414   1.358       .  D
C414       C1874   1.477       .  S
C415        H420   1.088       .  S
C415        C416   1.355       .  D
C416       C1834   1.469       .  S
O421        C437   1.279       .  A
O421       Zn427   2.059   1_455  S
C422        O438   1.279       .  A
C422        O435   1.279       .  A
O423        C436   1.283       .  A
O423       Cd430   2.130       .  S
O424        C442   1.279       .  A
O424       Cd433   2.101       .  S
O425        C439   1.279       .  A
O425       Cd429   2.107       .  S
O426        C437   1.279       .  A
O426       Cd429   2.115       .  S
Zn427       O438   2.064       .  S
Zn427       O440   2.062       .  S
Zn427       O432   1.982   1_655  S
O428        C439   1.280       .  A
O428       Cd433   2.119   1_455  S
Cd429       O431   2.099       .  S
Cd429       O432   2.032       .  S
Cd430       O434   2.124   1_655  S
Cd430       O443   2.132       .  S
Cd430       O432   2.040   1_655  S
O431        C441   1.279       .  A
O432       Cd433   2.030   1_455  S
Cd433       O435   2.104       .  S
O434        C441   1.283       .  A
C436        O440   1.279       .  A
C442        O443   1.284       .  A
C444        C445   1.542       .  S
C444        C450   1.522       .  S
C444        C448   1.526       .  S
C444       C1578   1.508       .  S
C445        H452   1.085       .  S
C445        C446   1.379       .  D
C446        C537   1.504       .  S
C446        C447   1.563       .  S
C447        C451   1.541       .  S
C447        C449   1.545       .  S
C447        H453   1.111       .  S
C448        H454   1.087       .  S
C448        C449   1.357       .  D
C449       C1754   1.478       .  S
C450        H455   1.086       .  S
C450        C451   1.359       .  D
C451       C1810   1.482       .  S
C456        C457   1.529       .  S
C456        C462   1.528       .  S
C456        C460   1.543       .  S
C456       C1573   1.510       .  S
C457        H464   1.085       .  S
C457        C458   1.361       .  D
C458        C459   1.538       .  S
C458       C1850   1.474       .  S
C459        C463   1.533       .  S
C459        C461   1.546       .  S
C459        H465   1.111       .  S
C460        H466   1.085       .  S
C460        C461   1.376       .  D
C461        C517   1.481       .  S
C462        H467   1.086       .  S
C462        C463   1.360       .  D
C463       C1762   1.480       .  S
C468        C469   1.540       .  S
C468        C474   1.526       .  S
C468        C472   1.526       .  S
C468       C1569   1.503       .  S
C469        H476   1.086       .  S
C469        C470   1.378       .  D
C470        C536   1.499       .  S
C470        C471   1.559       .  S
C471        C475   1.535       .  S
C471        C473   1.546       .  S
C471        H477   1.111       .  S
C472        H478   1.087       .  S
C472        C473   1.356       .  D
C473       C1561   1.476       .  S
C474        H479   1.088       .  S
C474        C475   1.355       .  D
C475       C1566   1.469       .  S
C480        C481   1.526       .  S
C480        C486   1.527       .  S
C480        C484   1.549       .  S
C480       C1557   1.515       .  S
C481        H488   1.085       .  S
C481        C482   1.362       .  D
C482        C483   1.541       .  S
C482       C1553   1.478       .  S
C483        C487   1.532       .  S
C483        C485   1.546       .  S
C483        H489   1.111       .  S
C484        H490   1.085       .  S
C484        C485   1.379       .  D
C485        C532   1.491       .  S
C486        H491   1.086       .  S
C486        C487   1.360       .  D
C487       C1549   1.476       .  S
C492        C493   1.551       .  S
C492        C498   1.526       .  S
C492        C496   1.529       .  S
C492       C1545   1.517       .  S
C493        H500   1.085       .  S
C493        C494   1.382       .  D
C494        C531   1.512       .  S
C494        C495   1.557       .  S
C495        C499   1.535       .  S
C495        C497   1.546       .  S
C495        H501   1.111       .  S
C496        H502   1.087       .  S
C496        C497   1.359       .  D
C497       C1542   1.480       .  S
C498        H503   1.088       .  S
C498        C499   1.356       .  D
C499       C1858   1.468       .  S
C504        C505   1.532       .  S
C504        C510   1.523       .  S
C504        C508   1.545       .  S
C504       C1822   1.516       .  S
C505        H512   1.084       .  S
C505        C506   1.364       .  D
C506        C507   1.544       .  S
C506       C1805   1.487       .  S
C507        C511   1.531       .  S
C507        C509   1.550       .  S
C507        H513   1.111       .  S
C508        H514   1.085       .  S
C508        C509   1.378       .  D
C509        C534   1.489       .  S
C510        H515   1.087       .  S
C510        C511   1.358       .  D
C511       C1537   1.474       .  S
O516        C532   1.279       .  A
O516       Zn522   2.068       .  S
C517        O533   1.280       .  A
C517        O530   1.276       .  A
O518        C531   1.284       .  A
O518       Cd525   2.137       .  S
O519        C537   1.277       .  A
O519       Cd528   2.097       .  S
O520        C534   1.278       .  A
O520       Cd524   2.105   1_554  S
O521        C532   1.278       .  A
O521       Cd524   2.109       .  S
Zn522       O533   2.067   1_556  S
Zn522       O535   2.077       .  S
Zn522       O527   1.983       .  S
O523        C534   1.277       .  A
O523       Cd528   2.105       .  S
Cd524       O526   2.097       .  S
Cd524       O527   2.031       .  S
Cd525       O529   2.121       .  S
Cd525       O538   2.135   1_556  S
Cd525       O527   2.038       .  S
O526        C536   1.279       .  A
O527       Cd528   2.031   1_556  S
Cd528       O530   2.084       .  S
O529        C536   1.283       .  A
C531        O535   1.281       .  A
C537        O538   1.285       .  A
O539        C555   1.263       .  A
O539       Zn545   1.934       .  S
C540        O556   1.272       .  A
C540        O553   1.275       .  A
C540       C1597   1.460       .  S
O541        C554   1.274       .  A
O541       Cd548   2.051       .  S
O542        C560   1.277       .  A
O542       Cd551   2.083       .  S
O543        C557   1.283       .  A
O543       Cd547   2.091       .  S
O544        C555   1.280       .  A
O544       Cd547   2.113       .  S
Zn545       O556   2.000       .  S
Zn545       O558   1.995       .  S
Zn545       O550   1.875       .  S
O546        C557   1.273       .  A
O546       Cd551   2.040       .  S
Cd547       O549   2.078       .  S
Cd547       O550   1.972       .  S
Cd548       O552   2.033       .  S
Cd548       O561   2.026       .  S
Cd548       O550   1.943       .  S
O549        C559   1.275       .  A
O550       Cd551   1.964       .  S
Cd551       O553   2.070       .  S
O552        C559   1.271       .  A
C554        O558   1.276       .  A
C554       C1533   1.460       .  S
C555       C1529   1.470       .  S
C557       C1525   1.466       .  S
C559       C1565   1.462       .  S
C560        O561   1.270       .  A
C560       C1554   1.468       .  S
C562        C563   1.551       .  S
C562        C568   1.524       .  S
C562        C566   1.534       .  S
C562       C1674   1.519       .  S
C563        H570   1.085       .  S
C563        C564   1.382       .  D
C564        C655   1.503       .  S
C564        C565   1.551       .  S
C565        C569   1.528       .  S
C565        C567   1.539       .  S
C565        H571   1.111       .  S
C566        H572   1.085       .  S
C566        C567   1.362       .  D
C567       C1758   1.479       .  S
C568        H573   1.087       .  S
C568        C569   1.358       .  D
C569       C1522   1.471       .  S
C574        C575   1.539       .  S
C574        C580   1.526       .  S
C574        C578   1.531       .  S
C574       C1517   1.507       .  S
C575        H582   1.085       .  S
C575        C576   1.378       .  D
C576        C649   1.492       .  S
C576        C577   1.557       .  S
C577        C581   1.532       .  S
C577        C579   1.540       .  S
C577        H583   1.111       .  S
C578        H584   1.085       .  S
C578        C579   1.359       .  D
C579       C1513   1.477       .  S
C580        H585   1.087       .  S
C580        C581   1.357       .  D
C581       C1630   1.479       .  S
C586        C587   1.550       .  S
C586        C592   1.524       .  S
C586        C590   1.531       .  S
C586       C1509   1.516       .  S
C587        H594   1.085       .  S
C587        C588   1.383       .  D
C588        C654   1.501       .  S
C588        C589   1.552       .  S
C589        C593   1.532       .  S
C589        C591   1.541       .  S
C589        H595   1.111       .  S
C590        H596   1.084       .  S
C590        C591   1.361       .  D
C591       C1878   1.481       .  S
C592        H597   1.087       .  S
C592        C593   1.358       .  D
C593       C1534   1.474       .  S
C598        C599   1.529       .  S
C598        C604   1.526       .  S
C598        C602   1.544       .  S
C598       C1818   1.507       .  S
C599        H606   1.087       .  S
C599        C600   1.360       .  D
C600        C601   1.545       .  S
C600       C1505   1.477       .  S
C601        C605   1.536       .  S
C601        C603   1.554       .  S
C601        H607   1.111       .  S
C602        H608   1.086       .  S
C602        C603   1.375       .  D
C603        C652   1.494       .  S
C604        H609   1.088       .  S
C604        C605   1.356       .  D
C605       C1886   1.468       .  S
C610        C611   1.527       .  S
C610        C616   1.526       .  S
C610        C614   1.541       .  S
C610       C1798   1.505       .  S
C611        H618   1.087       .  S
C611        C612   1.359       .  D
C612        C613   1.549       .  S
C612       C1622   1.480       .  S
C613        C617   1.534       .  S
C613        C615   1.556       .  S
C613        H619   1.111       .  S
C614        H620   1.086       .  S
C614        C615   1.374       .  D
C615        C635   1.491       .  S
C616        H621   1.088       .  S
C616        C617   1.355       .  D
C617       C1765   1.467       .  S
C622        C623   1.527       .  S
C622        C628   1.524       .  S
C622        C626   1.545       .  S
C622       C1770   1.510       .  S
C623        H630   1.087       .  S
C623        C624   1.356       .  D
C624        C625   1.545       .  S
C624       C1530   1.475       .  S
C625        C629   1.538       .  S
C625        C627   1.559       .  S
C625        H631   1.111       .  S
C626        H632   1.085       .  S
C626        C627   1.380       .  D
C627        C650   1.497       .  S
C628        H633   1.088       .  S
C628        C629   1.353       .  D
C629       C1502   1.473       .  S
O634        C650   1.278       .  A
O634       Zn640   2.063       .  S
C635        O651   1.278       .  A
C635        O648   1.280       .  A
O636        C649   1.281       .  A
O636       Cd643   2.110       .  S
O637        C655   1.279       .  A
O637       Cd646   2.102       .  S
O638        C652   1.281       .  A
O638       Cd642   2.115       .  S
O639        C650   1.281       .  A
O639       Cd642   2.129       .  S
Zn640       O651   2.060       .  S
Zn640       O653   2.032       .  S
Zn640       O645   1.980       .  S
O641        C652   1.281       .  A
O641       Cd646   2.119       .  S
Cd642       O644   2.103       .  S
Cd642       O645   2.028       .  S
Cd643       O647   2.121       .  S
Cd643       O656   2.125       .  S
Cd643       O645   2.046       .  S
O644        C654   1.280       .  A
O645       Cd646   2.026       .  S
Cd646       O648   2.112       .  S
O647        C654   1.281       .  A
C649        O653   1.276       .  A
C655        O656   1.281       .  A
O657        C673   1.273       .  A
O657       Zn663   2.012       .  S
C658        O674   1.265       .  A
C658        O671   1.281       .  A
C658       C1541   1.478       .  S
O659        C672   1.274       .  A
O659       Cd666   2.050       .  S
O660        C678   1.276       .  A
O660       Cd669   2.082       .  S
O661        C675   1.273       .  A
O661       Cd665   2.041       .  S
O662        C673   1.277       .  A
O662       Cd665   2.080       .  S
Zn663       O674   1.949       .  S
Zn663       O676   2.004       .  S
Zn663       O668   1.888       .  S
O664        C675   1.282       .  A
O664       Cd669   2.087       .  S
Cd665       O667   2.106       .  S
Cd665       O668   1.980       .  S
Cd666       O670   2.019       .  S
Cd666       O679   2.038       .  S
Cd666       O668   1.947       .  S
O667        C677   1.279       .  A
O668       Cd669   1.977       .  S
Cd669       O671   2.125       .  S
O670        C677   1.269       .  A
C672        O676   1.278       .  A
C672       C1550   1.461       .  S
C673       C1510   1.466       .  S
C675       C1489   1.465       .  S
C677       C1493   1.477       .  S
C678        O679   1.271       .  A
C678       C1497   1.465       .  S
O680        C696   1.269   1_545  A
O680       Zn686   1.960       .  S
C681        O697   1.267       .  A
C681        O694   1.281       .  A
C681       C1473   1.468       .  S
O682        C695   1.268       .  A
O682       Cd689   2.023   1_565  S
O683        C701   1.277       .  A
O683       Cd692   2.090       .  S
O684        C698   1.271       .  A
O684       Cd688   2.037   1_545  S
O685        C696   1.290       .  A
O685       Cd688   2.137       .  S
Zn686       O697   1.939       .  S
Zn686       O699   1.989   1_545  S
Zn686       O691   1.857       .  S
O687        C698   1.282       .  A
O687       Cd692   2.089       .  S
Cd688       O690   2.147       .  S
Cd688       O691   1.961   1_565  S
Cd689       O693   1.995   1_545  S
Cd689       O702   2.031       .  S
Cd689       O691   1.923       .  S
O690        C700   1.290       .  A
O691       Cd692   1.955       .  S
Cd692       O694   2.113       .  S
O693        C700   1.266       .  A
C695        O699   1.270       .  A
C695       C1481   1.444       .  S
C696       C1469   1.479       .  S
C698       C1653   1.465       .  S
C700       C1477   1.482       .  S
C701        O702   1.269       .  A
C701       C1486   1.460       .  S
O703        C719   1.268       .  A
O703       Zn709   1.951   1_556  S
C704        O720   1.276       .  A
C704        O717   1.280       .  A
C704       C1450   1.476       .  S
O705        C718   1.275       .  A
O705       Cd712   2.053       .  S
O706        C724   1.280       .  A
O706       Cd715   2.098       .  S
O707        C721   1.286       .  A
O707       Cd711   2.107       .  S
O708        C719   1.286       .  A
O708       Cd711   2.134       .  S
Zn709       O720   2.038       .  S
Zn709       O722   2.019       .  S
Zn709       O714   1.883   1_554  S
O710        C721   1.273       .  A
O710       Cd715   2.044   1_556  S
Cd711       O713   2.091       .  S
Cd711       O714   1.978       .  S
Cd712       O716   2.064   1_554  S
Cd712       O725   2.027       .  S
Cd712       O714   1.966   1_554  S
O713        C723   1.274       .  A
O714       Cd715   1.970   1_556  S
Cd715       O717   2.088       .  S
O716        C723   1.271       .  A
C718        O722   1.279       .  A
C718       C1465   1.466       .  S
C719       C1457   1.477       .  S
C721       C1558   1.474       .  S
C723       C1461   1.475       .  S
C724        O725   1.271       .  A
C724       C1453   1.474       .  S
C726        C727   1.551       .  S
C726        C732   1.544       .  S
C726        C730   1.532       .  S
C726       C1445   1.513       .  S
C727        H734   1.083   1_565  S
C727        C728   1.370       .  D
C728        C814   1.495       .  S
C728        C729   1.540       .  S
C729        C733   1.543       .  S
C729        C731   1.539       .  S
C729        H735   1.111       .  S
C730        H736   1.087       .  S
C730        C731   1.358       .  D
C731       C1494   1.481       .  S
C732        H737   1.085       .  S
C732        C733   1.368       .  D
C733       C1462   1.483       .  S
C738        C739   1.525       .  S
C738        C744   1.524       .  S
C738        C742   1.543       .  S
C738       C1846   1.507       .  S
C739        H746   1.087       .  S
C739        C740   1.357       .  D
C740        C741   1.548       .  S
C740       C1441   1.479       .  S
C741        C745   1.539       .  S
C741        C743   1.563       .  S
C741        H747   1.111       .  S
C742        H748   1.085       .  S
C742        C743   1.381       .  D
C743        C813   1.505       .  S
C744        H749   1.088       .  S
C744        C745   1.354       .  D
C745       C1498   1.473       .  S
C750        C751   1.532       .  S
C750        C756   1.526       .  S
C750        C754   1.547       .  S
C750       C1437   1.511       .  S
C751        H758   1.086       .  S
C751        C752   1.361       .  D
C752        C753   1.538       .  S
C752       C1454   1.477       .  S
C753        C757   1.525       .  S
C753        C755   1.551       .  S
C753        H759   1.111       .  S
C754        H760   1.085       .  S
C754        C755   1.379       .  D
C755        C818   1.497       .  S
C756        H761   1.087       .  S
C756        C757   1.359       .  D
C757       C1482   1.470       .  S
C762        C763   1.549       .  S
C762        C768   1.526       .  S
C762        C766   1.529       .  S
C762       C1433   1.509       .  S
C763        H770   1.085       .  S
C763        C764   1.381       .  D
C764        C816   1.488       .  S
C764        C765   1.546       .  S
C765        C769   1.529       .  S
C765        C767   1.538       .  S
C765        H771   1.111       .  S
C766        H772   1.087       .  S
C766        C767   1.356       .  D
C767       C1474   1.472       .  S
C768        H773   1.088       .  S
C768        C769   1.351       .  D
C769       C1814   1.451       .  S
C774        C775   1.547       .  S
C774        C780   1.525       .  S
C774        C778   1.528       .  S
C774       C1429   1.515       .  S
C775        H782   1.085       .  S
C775        C776   1.380       .  D
C776        C799   1.494       .  S
C776        C777   1.553       .  S
C777        C781   1.534       .  S
C777        C779   1.544       .  S
C777        H783   1.111       .  S
C778        H784   1.085       .  S
C778        C779   1.361       .  D
C779       C1425   1.481       .  S
C780        H785   1.086       .  S
C780        C781   1.358       .  D
C781       C1421   1.480       .  S
C786        C787   1.525       .  S
C786        C792   1.521       .  S
C786        C790   1.549       .  S
C786       C1702   1.514       .  S
C787        H794   1.087       .  S
C787        C788   1.357       .  D
C788        C789   1.548       .  S
C788       C1801   1.480       .  S
C789        C793   1.539       .  S
C789        C791   1.562       .  S
C789        H795   1.111       .  S
C790        H796   1.085       .  S
C790        C791   1.382       .  D
C791        C819   1.511       .  S
C792        H797   1.087       .  S
C792        C793   1.359       .  D
C793       C1417   1.476       .  S
O798        C814   1.282       .  A
O798       Zn804   2.095   1_565  S
C799        O815   1.282       .  A
C799        O812   1.279       .  A
O800        C813   1.284       .  A
O800       Cd807   2.127   1_556  S
O801        C819   1.280       .  A
O801       Cd810   2.113       .  S
O802        C816   1.278       .  A
O802       Cd806   2.106       .  S
O803        C814   1.275       .  A
O803       Cd806   2.089   1_566  S
Zn804       O815   2.082       .  S
Zn804       O817   2.063   1_545  S
Zn804       O809   1.988       .  S
O805        C816   1.279       .  A
O805       Cd810   2.106       .  S
Cd806       O808   2.085   1_545  S
Cd806       O809   2.028   1_554  S
Cd807       O811   2.127       .  S
Cd807       O820   2.142   1_565  S
Cd807       O809   2.044   1_564  S
O808        C818   1.278       .  A
O809       Cd810   2.029   1_556  S
Cd810       O812   2.107   1_554  S
O811        C818   1.282       .  A
C813        O817   1.279       .  A
C819        O820   1.285       .  A
O821        C837   1.274       .  A
O821       Zn827   1.999       .  S
C822        O838   1.267       .  A
C822        O835   1.280       .  A
C822       C1401   1.463       .  S
O823        C836   1.266       .  A
O823       Cd830   2.004       .  S
O824        C842   1.275       .  A
O824       Cd833   2.096       .  S
O825        C839   1.272   1_655  A
O825       Cd829   2.047       .  S
O826        C837   1.280       .  A
O826       Cd829   2.078       .  S
Zn827       O838   1.936   1_655  S
Zn827       O840   2.040       .  S
Zn827       O832   1.883       .  S
O828        C839   1.280       .  A
O828       Cd833   2.077       .  S
Cd829       O831   2.093       .  S
Cd829       O832   1.955       .  S
Cd830       O834   2.016       .  S
Cd830       O843   2.008   1_655  S
Cd830       O832   1.919       .  S
O831        C841   1.280       .  A
O832       Cd833   1.966   1_655  S
Cd833       O835   2.104       .  S
O834        C841   1.270       .  A
C836        O840   1.277       .  A
C836       C1410   1.458       .  S
C837       C1670   1.462       .  S
C839       C1582   1.464       .  S
C841       C1405   1.469       .  S
C842        O843   1.264       .  A
C842       C1414   1.456       .  S
O844        C860   1.273       .  A
O844       Zn850   1.996       .  S
C845        O861   1.268       .  A
C845        O858   1.281       .  A
C845       C1394   1.474       .  S
O846        C859   1.273       .  A
O846       Cd853   2.043       .  S
O847        C865   1.277       .  A
O847       Cd856   2.080       .  S
O848        C862   1.271       .  A
O848       Cd852   2.035   1_554  S
O849        C860   1.280       .  A
O849       Cd852   2.076       .  S
Zn850       O861   1.961   1_556  S
Zn850       O863   1.996       .  S
Zn850       O855   1.873       .  S
O851        C862   1.281       .  A
O851       Cd856   2.087       .  S
Cd852       O854   2.092       .  S
Cd852       O855   1.958       .  S
Cd853       O857   2.028       .  S
Cd853       O866   2.038   1_556  S
Cd853       O855   1.935       .  S
O854        C864   1.279       .  A
O855       Cd856   1.953   1_556  S
Cd856       O858   2.116       .  S
O857        C864   1.269       .  A
C859        O863   1.272       .  A
C859       C1397   1.449       .  S
C860       C1389   1.462       .  S
C862       C1577   1.465       .  S
C864       C1426   1.470       .  S
C865        O866   1.272       .  A
C865       C1418   1.460       .  S
O867        C883   1.276       .  A
O867       Zn873   2.014       .  S
C868        O884   1.269       .  A
C868        O881   1.282       .  A
C868       C1637   1.473       .  S
O869        C882   1.272       .  A
O869       Cd876   2.042       .  S
O870        C888   1.275       .  A
O870       Cd879   2.073       .  S
O871        C885   1.273       .  A
O871       Cd875   2.053   1_565  S
O872        C883   1.281       .  A
O872       Cd875   2.094       .  S
Zn873       O884   1.964   1_545  S
Zn873       O886   2.015       .  S
Zn873       O878   1.893       .  S
O874        C885   1.282       .  A
O874       Cd879   2.102       .  S
Cd875       O877   2.090       .  S
Cd875       O878   1.960       .  S
Cd876       O880   2.033       .  S
Cd876       O889   2.047   1_545  S
Cd876       O878   1.955       .  S
O877        C887   1.279       .  A
O878       Cd879   1.970   1_545  S
Cd879       O881   2.115       .  S
O880        C887   1.270       .  A
C882        O886   1.273       .  A
C882       C1646   1.455       .  S
C883       C1378   1.471       .  S
C885       C1446   1.482       .  S
C887       C1381   1.471       .  S
C888        O889   1.270       .  A
C888       C1386   1.461       .  S
C890        C891   1.549       .  S
C890        C896   1.527       .  S
C890        C894   1.527       .  S
C890       C1373   1.517       .  S
C891        H898   1.085   1_556  S
C891        C892   1.380       .  D
C892        C963   1.497       .  S
C892        C893   1.552       .  S
C893        C897   1.534       .  S
C893        C895   1.545       .  S
C893        H899   1.111       .  S
C894        H900   1.084       .  S
C894        C895   1.362       .  D
C895       C1382   1.483       .  S
C896        H901   1.086       .  S
C896        C897   1.359       .  D
C897       C1369   1.479       .  S
C902        C903   1.550       .  S
C902        C908   1.535       .  S
C902        C906   1.520       .  S
C902       C1470   1.521       .  S
C903        H910   1.085   1_565  S
C903        C904   1.380       .  D
C904        C980   1.501       .  S
C904        C905   1.553       .  S
C905        C909   1.535       .  S
C905        C907   1.542       .  S
C905        H911   1.111       .  S
C906        H912   1.087       .  S
C906        C907   1.356       .  D
C907       C1402   1.469       .  S
C908        H913   1.085       .  S
C908        C909   1.363       .  D
C909       C1466   1.481       .  S
C914        C915   1.549       .  S
C914        C920   1.523       .  S
C914        C918   1.529       .  S
C914       C1726   1.515       .  S
C915        H922   1.085       .  S
C915        C916   1.379       .  D
C916        C978   1.497       .  S
C916        C917   1.553       .  S
C917        C921   1.535       .  S
C917        C919   1.544       .  S
C917        H923   1.111       .  S
C918        H924   1.087       .  S
C918        C919   1.359       .  D
C919       C1393   1.477       .  S
C920        H925   1.087       .  S
C920        C921   1.359       .  D
C921       C1717   1.473       .  S
C926        C927   1.533       .  S
C926        C932   1.522       .  S
C926        C930   1.551       .  S
C926       C1841   1.519       .  S
C927        H934   1.086       .  S
C927        C928   1.361       .  D
C928        C929   1.550       .  S
C928       C1709   1.482       .  S
C929        C933   1.532       .  S
C929        C931   1.558       .  S
C929        H935   1.111       .  S
C930        H936   1.085       .  S
C930        C931   1.381       .  D
C931        C982   1.514       .  S
C932        H937   1.086       .  S
C932        C933   1.361       .  D
C933       C1409   1.482       .  S
C938        C939   1.529       .  S
C938        C944   1.527       .  S
C938        C942   1.545       .  S
C938       C1606   1.512       .  S
C939        H946   1.087       .  S
C939        C940   1.355       .  D
C940        C941   1.543       .  S
C940       C1458   1.480       .  S
C941        C945   1.539       .  S
C941        C943   1.562       .  S
C941        H947   1.111       .  S
C942        H948   1.085   1_455  S
C942        C943   1.380       .  D
C943        C983   1.505       .  S
C944        H949   1.086       .  S
C944        C945   1.360       .  D
C945       C1385   1.476       .  S
C950        C951   1.530       .  S
C950        C956   1.522       .  S
C950        C954   1.548       .  S
C950       C1365   1.516       .  S
C951        H958   1.087       .  S
C951        C952   1.358       .  D
C952        C953   1.543       .  S
C952       C1362   1.477       .  S
C953        C957   1.532       .  S
C953        C955   1.558       .  S
C953        H959   1.111       .  S
C954        H960   1.085       .  S
C954        C955   1.383       .  D
C955        C977   1.507       .  S
C956        H961   1.087       .  S
C956        C957   1.358       .  D
C957       C1398   1.475       .  S
O962        C978   1.281       .  A
O962       Zn968   2.080   1_554  S
C963        O979   1.280       .  A
C963        O976   1.279       .  A
O964        C977   1.283       .  A
O964       Cd971   2.133   1_545  S
O965        C983   1.279       .  A
O965       Cd974   2.100       .  S
O966        C980   1.284       .  A
O966       Cd970   2.140   1_465  S
O967        C978   1.281       .  A
O967       Cd970   2.116       .  S
Zn968       O979   2.076   1_655  S
Zn968       O981   2.063       .  S
Zn968       O973   1.991   1_556  S
O969        C980   1.280       .  A
O969       Cd974   2.112   1_554  S
Cd970       O972   2.120   1_545  S
Cd970       O973   2.037       .  S
Cd971       O975   2.145   1_556  S
Cd971       O984   2.140       .  S
Cd971       O973   2.051   1_566  S
O972        C982   1.282       .  A
O973       Cd974   2.036   1_644  S
Cd974       O976   2.117   1_565  S
O975        C982   1.285       .  A
C977        O981   1.280       .  A
C983        O984   1.285   1_455  A
O985       C1001   1.270       .  A
O985       Zn991   1.987       .  S
C986       O1002   1.262       .  A
C986        O999   1.281       .  A
C986       C1562   1.473       .  S
O987       C1000   1.272       .  A
O987       Cd994   2.045       .  S
O988       C1006   1.277       .  A
O988       Cd997   2.088       .  S
O989       C1003   1.272       .  A
O989       Cd993   2.045   1_556  S
O990       C1001   1.277       .  A
O990       Cd993   2.076       .  S
Zn991      O1002   1.928   1_554  S
Zn991      O1004   1.995       .  S
Zn991       O996   1.882   1_554  S
O992       C1003   1.286       .  A
O992       Cd997   2.111       .  S
Cd993       O995   2.092       .  S
Cd993       O996   1.974   1_554  S
Cd994       O998   2.032       .  S
Cd994      O1007   2.026   1_554  S
Cd994       O996   1.945   1_554  S
O995       C1005   1.278       .  A
O996       Cd997   1.980       .  S
Cd997       O999   2.125       .  S
O998       C1005   1.271       .  A
C1000      O1004   1.275       .  A
C1000      C1538   1.458       .  S
C1001      C1434   1.458       .  S
C1003      C1374   1.474       .  S
C1005      C1353   1.473       .  S
C1006      O1007   1.270       .  A
C1006      C1357   1.464       .  S
O1008      C1024   1.274       .  A
O1008     Zn1014   1.999       .  S
C1009      O1025   1.269       .  A
C1009      O1022   1.282       .  A
C1009      C1594   1.474       .  S
O1010      C1023   1.270       .  A
O1010     Cd1017   2.035       .  S
O1011      C1029   1.277       .  A
O1011     Cd1020   2.091       .  S
O1012      C1026   1.272       .  A
O1012     Cd1016   2.052       .  S
O1013      C1024   1.279       .  A
O1013     Cd1016   2.071       .  S
Zn1014     O1025   1.964       .  S
Zn1014     O1027   2.016       .  S
Zn1014     O1019   1.880       .  S
O1015      C1026   1.283       .  A
O1015     Cd1020   2.101       .  S
Cd1016     O1018   2.094       .  S
Cd1016     O1019   1.966       .  S
Cd1017     O1021   2.008       .  S
Cd1017     O1030   2.030       .  S
Cd1017     O1019   1.931       .  S
O1018      C1028   1.279       .  A
O1019     Cd1020   1.961       .  S
Cd1020     O1022   2.119       .  S
O1021      C1028   1.268       .  A
C1023      O1027   1.274       .  A
C1023      C1585   1.453       .  S
C1024      C1518   1.458       .  S
C1026      C1546   1.475       .  S
C1028      C1345   1.468       .  S
C1029      O1030   1.270       .  A
C1029      C1349   1.461       .  S
O1031      C1047   1.264       .  A
O1031     Zn1037   1.937   1_655  S
C1032      O1048   1.271       .  A
C1032      O1045   1.277       .  A
C1032      C1649   1.463       .  S
O1033      C1046   1.274       .  A
O1033     Cd1040   2.055       .  S
O1034      C1052   1.279       .  A
O1034     Cd1043   2.090       .  S
O1035      C1049   1.283       .  A
O1035     Cd1039   2.098       .  S
O1036      C1047   1.281       .  A
O1036     Cd1039   2.119       .  S
Zn1037     O1048   1.996       .  S
Zn1037     O1050   2.003       .  S
Zn1037     O1042   1.884   1_455  S
O1038      C1049   1.273       .  A
O1038     Cd1043   2.051   1_655  S
Cd1039     O1041   2.083       .  S
Cd1039     O1042   1.976       .  S
Cd1040     O1044   2.038   1_455  S
Cd1040     O1053   2.022       .  S
Cd1040     O1042   1.947   1_455  S
O1041      C1051   1.276       .  A
O1042     Cd1043   1.974   1_655  S
Cd1043     O1045   2.078       .  S
O1044      C1051   1.272       .  A
C1046      O1050   1.277       .  A
C1046      C1370   1.463       .  S
C1047      C1361   1.474       .  S
C1049      C1590   1.472       .  S
C1051      C1341   1.465       .  S
C1052      O1053   1.269       .  A
C1052      C1338   1.468       .  S
C1054      C1055   1.545       .  S
C1054      C1060   1.527       .  S
C1054      C1058   1.528       .  S
C1054      C1390   1.509       .  S
C1055      H1062   1.085       .  S
C1055      C1056   1.381       .  D
C1056      C1147   1.501       .  S
C1056      C1057   1.554       .  S
C1057      C1061   1.536       .  S
C1057      C1059   1.541       .  S
C1057      H1063   1.111       .  S
C1058      H1064   1.085       .  S
C1058      C1059   1.359       .  D
C1059      C1346   1.473       .  S
C1060      H1065   1.088       .  S
C1060      C1061   1.353       .  D
C1061      C1342   1.474       .  S
C1066      C1067   1.527       .  S
C1066      C1072   1.530       .  S
C1066      C1070   1.544       .  S
C1066      C1526   1.508       .  S
C1067      H1074   1.085       .  S
C1067      C1068   1.362       .  D
C1068      C1069   1.543       .  S
C1068      C1337   1.478       .  S
C1069      C1073   1.532       .  S
C1069      C1071   1.551       .  S
C1069      H1075   1.111       .  S
C1070      H1076   1.085       .  S
C1070      C1071   1.376       .  D
C1071      C1144   1.489       .  S
C1072      H1077   1.088       .  S
C1072      C1073   1.354       .  D
C1073      C1358   1.470       .  S
C1078      C1079   1.527       .  S
C1078      C1084   1.520       .  S
C1078      C1082   1.547       .  S
C1078      C1602   1.514       .  S
C1079      H1086   1.087       .  S
C1079      C1080   1.358       .  D
C1080      C1081   1.549       .  S
C1080      C1854   1.481       .  S
C1081      C1085   1.542       .  S
C1081      C1083   1.560       .  S
C1081      H1087   1.111       .  S
C1082      H1088   1.085       .  S
C1082      C1083   1.380       .  D
C1083      C1127   1.503       .  S
C1084      H1089   1.087       .  S
C1084      C1085   1.358       .  D
C1085      C1350   1.480       .  S
C1090      C1091   1.549       .  S
C1090      C1096   1.527       .  S
C1090      C1094   1.533       .  S
C1090      C1722   1.519       .  S
C1091      H1098   1.085   1_455  S
C1091      C1092   1.382       .  D
C1092      C1146   1.501       .  S
C1092      C1093   1.550       .  S
C1093      C1097   1.530       .  S
C1093      C1095   1.539       .  S
C1093      H1099   1.111       .  S
C1094      H1100   1.085       .  S
C1094      C1095   1.362       .  D
C1095      C1354   1.480       .  S
C1096      H1101   1.086       .  S
C1096      C1097   1.360       .  D
C1097      C1838   1.474       .  S
C1102      C1103   1.545       .  S
C1102      C1108   1.524       .  S
C1102      C1106   1.529       .  S
C1102      C1746   1.514       .  S
C1103      H1110   1.085       .  S
C1103      C1104   1.382       .  D
C1104      C1141   1.498       .  S
C1104      C1105   1.552       .  S
C1105      C1109   1.531       .  S
C1105      C1107   1.541       .  S
C1105      H1111   1.111       .  S
C1106      H1112   1.085       .  S
C1106      C1107   1.361       .  D
C1107      C1406   1.477       .  S
C1108      H1113   1.086       .  S
C1108      C1109   1.359       .  D
C1109      C1862   1.475       .  S
C1114      C1115   1.533       .  S
C1114      C1120   1.518       .  S
C1114      C1118   1.552       .  S
C1114      C1449   1.524       .  S
C1115      H1122   1.086       .  S
C1115      C1116   1.362       .  D
C1116      C1117   1.545       .  S
C1116      C1826   1.481       .  S
C1117      C1121   1.537       .  S
C1117      C1119   1.556       .  S
C1117      H1123   1.111       .  S
C1118      H1124   1.085   1_554  S
C1118      C1119   1.381       .  D
C1119      C1142   1.505       .  S
C1120      H1125   1.087       .  S
C1120      C1121   1.360       .  D
C1121      C1413   1.478       .  S
O1126      C1142   1.283       .  A
O1126     Zn1132   2.098   1_455  S
C1127      O1143   1.283       .  A
C1127      O1140   1.281       .  A
O1128      C1141   1.280       .  A
O1128     Cd1135   2.107       .  S
O1129      C1147   1.280       .  A
O1129     Cd1138   2.109       .  S
O1130      C1144   1.279       .  A
O1130     Cd1134   2.105   1_556  S
O1131      C1142   1.280       .  A
O1131     Cd1134   2.121       .  S
Zn1132     O1143   2.098   1_554  S
Zn1132     O1145   2.065       .  S
Zn1132     O1137   1.988   1_554  S
O1133      C1144   1.280       .  A
O1133     Cd1138   2.112   1_455  S
Cd1134     O1136   2.107       .  S
Cd1134     O1137   2.030   1_454  S
Cd1135     O1139   2.114       .  S
Cd1135     O1148   2.114   1_554  S
Cd1135     O1137   2.046   1_554  S
O1136      C1146   1.280       .  A
O1137     Cd1138   2.033       .  S
Cd1138     O1140   2.120       .  S
O1139      C1146   1.279   1_655  A
C1141      O1145   1.281       .  A
C1147      O1148   1.280       .  A
O1149      C1165   1.268       .  A
O1149     Zn1155   1.952       .  S
C1150      O1166   1.273       .  A
C1150      O1163   1.279       .  A
C1150      C1574   1.462       .  S
O1151      C1164   1.272       .  A
O1151     Cd1158   2.036       .  S
O1152      C1170   1.278       .  A
O1152     Cd1161   2.079       .  S
O1153      C1167   1.284       .  A
O1153     Cd1157   2.102       .  S
O1154      C1165   1.283       .  A
O1154     Cd1157   2.123       .  S
Zn1155     O1166   1.997       .  S
Zn1155     O1168   1.996       .  S
Zn1155     O1160   1.866       .  S
O1156      C1167   1.271       .  A
O1156     Cd1161   2.036       .  S
Cd1157     O1159   2.100       .  S
Cd1157     O1160   1.952       .  S
Cd1158     O1162   2.046       .  S
Cd1158     O1171   2.014       .  S
Cd1158     O1160   1.932       .  S
O1159      C1169   1.279       .  A
O1160     Cd1161   1.955       .  S
Cd1161     O1163   2.077       .  S
O1162      C1169   1.272       .  A
C1164      O1168   1.272       .  A
C1164      C1521   1.446       .  S
C1165      C1506   1.473       .  S
C1167      C1438   1.470       .  S
C1169      C1333   1.468       .  S
C1170      O1171   1.269       .  A
C1170      C1330   1.461       .  S
O1172      C1188   1.273       .  A
O1172     Zn1178   2.007       .  S
C1173      O1189   1.264       .  A
C1173      O1186   1.281       .  A
C1173      C1321   1.476       .  S
O1174      C1187   1.274       .  A
O1174     Cd1181   2.045       .  S
O1175      C1193   1.276       .  A
O1175     Cd1184   2.083       .  S
O1176      C1190   1.271       .  A
O1176     Cd1180   2.029       .  S
O1177      C1188   1.277       .  A
O1177     Cd1180   2.078       .  S
Zn1178     O1189   1.944       .  S
Zn1178     O1191   2.014       .  S
Zn1178     O1183   1.884       .  S
O1179      C1190   1.281       .  A
O1179     Cd1184   2.080       .  S
Cd1180     O1182   2.096       .  S
Cd1180     O1183   1.977       .  S
Cd1181     O1185   2.016       .  S
Cd1181     O1194   2.035       .  S
Cd1181     O1183   1.941       .  S
O1182      C1192   1.278       .  A
O1183     Cd1184   1.976       .  S
Cd1184     O1186   2.120       .  S
O1185      C1192   1.268       .  A
C1187      O1191   1.279       .  A
C1187      C1325   1.462       .  S
C1188      C1430   1.466       .  S
C1190      C1570   1.459       .  S
C1192      C1514   1.471       .  S
C1193      O1194   1.271       .  A
C1193      C1501   1.465       .  S
O1195      C1211   1.264       .  A
O1195     Zn1201   1.946   1_565  S
C1196      O1212   1.274       .  A
C1196      O1209   1.278       .  A
C1196      C1366   1.468       .  S
O1197      C1210   1.274       .  A
O1197     Cd1204   2.050       .  S
O1198      C1216   1.279       .  A
O1198     Cd1207   2.096       .  S
O1199      C1213   1.283       .  A
O1199     Cd1203   2.097       .  S
O1200      C1211   1.281       .  A
O1200     Cd1203   2.115       .  S
Zn1201     O1212   2.013       .  S
Zn1201     O1214   2.009       .  S
Zn1201     O1206   1.888       .  S
O1202      C1213   1.273   1_545  A
O1202     Cd1207   2.039       .  S
Cd1203     O1205   2.081       .  S
Cd1203     O1206   1.975   1_565  S
Cd1204     O1208   2.041   1_545  S
Cd1204     O1217   2.025       .  S
Cd1204     O1206   1.944       .  S
O1205      C1215   1.276       .  A
O1206     Cd1207   1.972       .  S
Cd1207     O1209   2.081       .  S
O1208      C1215   1.272       .  A
C1210      O1214   1.278       .  A
C1210      C1422   1.461       .  S
C1211      C1442   1.473       .  S
C1213      C1662   1.468       .  S
C1215      C1318   1.465       .  S
C1216      O1217   1.270       .  A
C1216      C1314   1.473       .  S
C1218      C1219   1.544       .  S
C1218      C1224   1.528       .  S
C1218      C1222   1.533       .  S
C1218      C1377   1.516       .  S
C1219      H1226   1.086       .  S
C1219      C1220   1.374       .  D
C1220      C1308   1.495       .  S
C1220      C1221   1.552       .  S
C1221      C1225   1.533       .  S
C1221      C1223   1.542       .  S
C1221      H1227   1.111       .  S
C1222      H1228   1.086       .  S
C1222      C1223   1.361       .  D
C1223      C1322   1.476       .  S
C1224      H1229   1.086       .  S
C1224      C1225   1.364       .  D
C1225      C1786   1.478       .  S
C1230      C1231   1.544       .  S
C1230      C1236   1.528       .  S
C1230      C1234   1.525       .  S
C1230      C1490   1.508       .  S
C1231      H1238   1.086       .  S
C1231      C1232   1.376       .  D
C1232      C1306   1.495       .  S
C1232      C1233   1.556       .  S
C1233      C1237   1.537       .  S
C1233      C1235   1.547       .  S
C1233      H1239   1.111       .  S
C1234      H1240   1.087       .  S
C1234      C1235   1.358       .  D
C1235      C1682   1.477       .  S
C1236      H1241   1.088       .  S
C1236      C1237   1.356       .  D
C1237      C1317   1.472       .  S
C1242      C1243   1.533       .  S
C1242      C1248   1.527       .  S
C1242      C1246   1.546       .  S
C1242      C1617   1.516       .  S
C1243      H1250   1.085       .  S
C1243      C1244   1.361       .  D
C1244      C1245   1.538       .  S
C1244      C1313   1.478       .  S
C1245      C1249   1.533       .  S
C1245      C1247   1.551       .  S
C1245      H1251   1.111       .  S
C1246      H1252   1.085       .  S
C1246      C1247   1.379       .  D
C1247      C1310   1.498       .  S
C1248      H1253   1.086       .  S
C1248      C1249   1.361       .  D
C1249      C1326   1.479       .  S
C1254      C1255   1.541       .  S
C1254      C1260   1.528       .  S
C1254      C1258   1.525       .  S
C1254      C1866   1.507       .  S
C1255      H1262   1.086       .  S
C1255      C1256   1.375       .  D
C1256      C1291   1.501       .  S
C1256      C1257   1.563       .  S
C1257      C1261   1.542       .  S
C1257      C1259   1.555       .  S
C1257      H1263   1.111       .  S
C1258      H1264   1.085       .  S
C1258      C1259   1.358       .  D
C1259      C1478   1.487       .  S
C1260      H1265   1.086       .  S
C1260      C1261   1.358       .  D
C1261      C1334   1.487       .  S
C1266      C1267   1.520       .  S
C1266      C1272   1.536       .  S
C1266      C1270   1.545       .  S
C1266      C1698   1.516       .  S
C1267      H1274   1.086       .  S
C1267      C1268   1.358       .  D
C1268      C1269   1.539       .  S
C1268      C1329   1.472       .  S
C1269      C1273   1.535       .  S
C1269      C1271   1.553       .  S
C1269      H1275   1.111       .  S
C1270      H1276   1.085   1_565  S
C1270      C1271   1.381       .  D
C1271      C1305   1.500       .  S
C1272      H1277   1.085       .  S
C1272      C1273   1.360       .  D
C1273      C1693   1.483       .  S
C1278      C1279   1.529       .  S
C1278      C1284   1.523       .  S
C1278      C1282   1.541       .  S
C1278      C1794   1.509       .  S
C1279      H1286   1.087       .  S
C1279      C1280   1.358       .  D
C1280      C1281   1.539       .  S
C1280      C1777   1.472       .  S
C1281      C1285   1.539       .  S
C1281      C1283   1.556       .  S
C1281      H1287   1.111       .  S
C1282      H1288   1.086       .  S
C1282      C1283   1.379       .  D
C1283      C1311   1.496       .  S
C1284      H1289   1.087       .  S
C1284      C1285   1.359       .  D
C1285      C1485   1.479       .  S
O1290      C1306   1.283       .  A
O1290     Zn1296   2.090       .  S
C1291      O1307   1.282       .  A
C1291      O1304   1.280       .  A
O1292      C1305   1.280   1_545  A
O1292     Cd1299   2.110       .  S
O1293      C1311   1.279       .  A
O1293     Cd1302   2.102       .  S
O1294      C1308   1.279       .  A
O1294     Cd1298   2.110       .  S
O1295      C1306   1.279       .  A
O1295     Cd1298   2.103   1_565  S
Zn1296     O1307   2.089       .  S
Zn1296     O1309   2.062       .  S
Zn1296     O1301   1.984   1_565  S
O1297      C1308   1.282       .  A
O1297     Cd1302   2.125       .  S
Cd1298     O1300   2.096       .  S
Cd1298     O1301   2.027       .  S
Cd1299     O1303   2.114       .  S
Cd1299     O1312   2.106       .  S
Cd1299     O1301   2.039       .  S
O1300      C1310   1.278       .  A
O1301     Cd1302   2.032       .  S
Cd1302     O1304   2.118   1_545  S
O1303      C1310   1.280       .  A
C1305      O1309   1.280       .  A
C1311      O1312   1.280       .  A
C1313      H1315   1.086       .  S
C1313      C1314   1.353       .  D
C1314      H1316   1.085       .  S
C1317      H1319   1.086       .  S
C1317      C1318   1.347       .  D
C1318      H1320   1.087       .  S
C1321      H1323   1.087       .  S
C1321      C1322   1.356       .  D
C1322      H1324   1.086       .  S
C1325      H1327   1.086       .  S
C1325      C1326   1.342       .  D
C1326      H1328   1.086       .  S
C1329      H1331   1.086       .  S
C1329      C1330   1.352       .  D
C1330      H1332   1.084       .  S
C1333      H1335   1.086       .  S
C1333      C1334   1.348       .  D
C1334      H1336   1.086       .  S
C1337      H1339   1.086       .  S
C1337      C1338   1.354       .  D
C1338      H1340   1.084       .  S
C1341      H1343   1.087       .  S
C1341      C1342   1.348       .  D
C1342      H1344   1.086       .  S
C1345      H1347   1.085       .  S
C1345      C1346   1.354       .  D
C1346      H1348   1.086       .  S
C1349      H1351   1.087       .  S
C1349      C1350   1.345       .  D
C1350      H1352   1.086       .  S
C1353      H1355   1.084       .  S
C1353      C1354   1.353       .  D
C1354      H1356   1.086       .  S
C1357      H1359   1.087       .  S
C1357      C1358   1.347       .  D
C1358      H1360   1.086       .  S
C1361      H1363   1.086       .  S
C1361      C1362   1.357       .  D
C1362      H1364   1.086       .  S
C1365      H1367   1.086       .  S
C1365      C1366   1.358       .  D
C1366      H1368   1.087       .  S
C1369      H1371   1.086       .  S
C1369      C1370   1.344       .  D
C1370      H1372   1.086       .  S
C1373      H1375   1.086   1_556  S
C1373      C1374   1.361       .  D
C1374      H1376   1.087       .  S
C1377      H1379   1.086       .  S
C1377      C1378   1.353       .  D
C1378      H1380   1.086       .  S
C1381      H1383   1.083       .  S
C1381      C1382   1.354       .  D
C1382      H1384   1.086       .  S
C1385      H1387   1.087       .  S
C1385      C1386   1.344       .  D
C1386      H1388   1.086       .  S
C1389      H1391   1.087       .  S
C1389      C1390   1.355       .  D
C1390      H1392   1.086       .  S
C1393      H1395   1.087       .  S
C1393      C1394   1.353       .  D
C1394      H1396   1.086       .  S
C1397      H1399   1.086       .  S
C1397      C1398   1.343       .  D
C1398      H1400   1.086       .  S
C1401      H1403   1.086       .  S
C1401      C1402   1.354       .  D
C1402      H1404   1.087       .  S
C1405      H1407   1.084       .  S
C1405      C1406   1.353       .  D
C1406      H1408   1.086       .  S
C1409      H1411   1.086       .  S
C1409      C1410   1.339       .  D
C1410      H1412   1.087       .  S
C1413      H1415   1.086       .  S
C1413      C1414   1.340       .  D
C1414      H1416   1.088       .  S
C1417      H1419   1.086       .  S
C1417      C1418   1.344       .  D
C1418      H1420   1.087       .  S
C1421      H1423   1.086       .  S
C1421      C1422   1.344       .  D
C1422      H1424   1.086       .  S
C1425      H1427   1.086       .  S
C1425      C1426   1.355       .  D
C1426      H1428   1.084       .  S
C1429      H1431   1.086       .  S
C1429      C1430   1.359       .  D
C1430      H1432   1.086       .  S
C1433      H1435   1.086       .  S
C1433      C1434   1.355       .  D
C1434      H1436   1.086       .  S
C1437      H1439   1.086       .  S
C1437      C1438   1.358       .  D
C1438      H1440   1.087       .  S
C1441      H1443   1.086       .  S
C1441      C1442   1.358       .  D
C1442      H1444   1.086       .  S
C1445      H1447   1.076       .  S
C1445      C1446   1.357       .  D
C1446      H1448   1.075       .  S
C1449      H1451   1.086       .  S
C1449      C1450   1.359       .  D
C1450      H1452   1.087       .  S
C1453      H1455   1.082       .  S
C1453      C1454   1.354       .  D
C1454      H1456   1.084       .  S
C1457      H1459   1.086       .  S
C1457      C1458   1.358       .  D
C1458      H1460   1.086       .  S
C1461      H1463   1.087       .  S
C1461      C1462   1.345       .  D
C1462      H1464   1.087       .  S
C1465      H1467   1.085       .  S
C1465      C1466   1.343       .  D
C1466      H1468   1.086       .  S
C1469      H1471   1.088       .  S
C1469      C1470   1.337       .  D
C1470      H1472   1.087       .  S
C1473      H1475   1.086       .  S
C1473      C1474   1.353       .  D
C1474      H1476   1.087       .  S
C1477      H1479   1.084       .  S
C1477      C1478   1.365       .  D
C1478      H1480   1.086       .  S
C1481      H1483   1.085       .  S
C1481      C1482   1.339       .  D
C1482      H1484   1.086       .  S
C1485      H1487   1.086       .  S
C1485      C1486   1.343       .  D
C1486      H1488   1.086       .  S
C1489      H1491   1.087       .  S
C1489      C1490   1.355       .  D
C1490      H1492   1.086       .  S
C1493      H1495   1.079       .  S
C1493      C1494   1.356       .  D
C1494      H1496   1.083       .  S
C1497      H1499   1.087       .  S
C1497      C1498   1.349       .  D
C1498      H1500   1.086       .  S
C1501      H1503   1.087       .  S
C1501      C1502   1.350       .  D
C1502      H1504   1.086       .  S
C1505      H1507   1.086       .  S
C1505      C1506   1.355       .  D
C1506      H1508   1.086       .  S
C1509      H1511   1.086       .  S
C1509      C1510   1.357       .  D
C1510      H1512   1.087       .  S
C1513      H1515   1.086       .  S
C1513      C1514   1.355       .  D
C1514      H1516   1.085       .  S
C1517      H1519   1.086       .  S
C1517      C1518   1.354       .  D
C1518      H1520   1.087       .  S
C1521      H1523   1.086       .  S
C1521      C1522   1.340       .  D
C1522      H1524   1.087       .  S
C1525      H1527   1.087       .  S
C1525      C1526   1.356       .  D
C1526      H1528   1.086       .  S
C1529      H1531   1.086       .  S
C1529      C1530   1.357       .  D
C1530      H1532   1.086       .  S
C1533      H1535   1.087       .  S
C1533      C1534   1.342       .  D
C1534      H1536   1.086       .  S
C1537      H1539   1.086       .  S
C1537      C1538   1.341       .  D
C1538      H1540   1.087       .  S
C1541      H1543   1.086       .  S
C1541      C1542   1.357       .  D
C1542      H1544   1.086       .  S
C1545      H1547   1.086       .  S
C1545      C1546   1.359       .  D
C1546      H1548   1.087       .  S
C1549      H1551   1.086       .  S
C1549      C1550   1.342       .  D
C1550      H1552   1.086       .  S
C1553      H1555   1.086       .  S
C1553      C1554   1.352       .  D
C1554      H1556   1.084       .  S
C1557      H1559   1.086       .  S
C1557      C1558   1.360       .  D
C1558      H1560   1.087       .  S
C1561      H1563   1.086       .  S
C1561      C1562   1.358       .  D
C1562      H1564   1.086       .  S
C1565      H1567   1.087       .  S
C1565      C1566   1.346       .  D
C1566      H1568   1.086       .  S
C1569      H1571   1.086       .  S
C1569      C1570   1.353       .  D
C1570      H1572   1.088       .  S
C1573      H1575   1.086       .  S
C1573      C1574   1.354       .  D
C1574      H1576   1.087       .  S
C1577      H1579   1.088       .  S
C1577      C1578   1.356       .  D
C1578      H1580   1.086       .  S
C1581      H1583   1.086       .  S
C1581      C1582   1.355       .  D
C1582      H1584   1.088       .  S
C1585      H1587   1.085       .  S
C1585      C1586   1.343       .  D
C1586      H1588   1.086       .  S
C1589      H1591   1.086   1_655  S
C1589      C1590   1.357       .  D
C1590      H1592   1.087       .  S
C1593      H1595   1.086       .  S
C1593      C1594   1.355       .  D
C1594      H1596   1.086       .  S
C1597      H1599   1.087       .  S
C1597      C1598   1.353       .  D
C1598      H1600   1.086       .  S
C1601      H1603   1.087       .  S
C1601      C1602   1.356       .  D
C1602      H1604   1.086       .  S
C1605      H1607   1.087       .  S
C1605      C1606   1.356       .  D
C1606      H1608   1.086       .  S
C1609      H1611   1.086       .  S
C1609      C1610   1.356       .  D
C1610      H1612   1.086       .  S
C1613      H1615   1.085       .  S
C1613      C1614   1.345       .  D
C1614      H1616   1.086       .  S
C1617      H1619   1.086       .  S
C1617      C1618   1.355       .  D
C1618      H1620   1.086       .  S
C1621      H1623   1.086       .  S
C1621      C1622   1.357       .  D
C1622      H1624   1.086       .  S
C1625      H1627   1.084       .  S
C1625      C1626   1.354       .  D
C1626      H1628   1.086       .  S
C1629      H1631   1.086       .  S
C1629      C1630   1.346       .  D
C1630      H1632   1.086       .  S
C1633      H1635   1.087       .  S
C1633      C1634   1.343       .  D
C1634      H1636   1.086       .  S
C1637      H1639   1.087       .  S
C1637      C1638   1.355       .  D
C1638      H1640   1.087       .  S
C1641      H1643   1.086       .  S
C1641      C1642   1.345       .  D
C1642      H1644   1.088       .  S
C1645      H1647   1.086       .  S
C1645      C1646   1.344       .  D
C1646      H1648   1.086       .  S
C1649      H1651   1.087       .  S
C1649      C1650   1.356       .  D
C1650      H1652   1.086       .  S
C1653      H1655   1.088       .  S
C1653      C1654   1.357       .  D
C1654      H1656   1.086       .  S
C1657      H1659   1.083       .  S
C1657      C1658   1.356       .  D
C1658      H1660   1.081       .  S
C1661      H1663   1.091   1_565  S
C1661      C1662   1.355       .  D
C1662      H1664   1.093       .  S
C1665      H1667   1.087       .  S
C1665      C1666   1.356       .  D
C1666      H1668   1.086       .  S
C1669      H1671   1.086       .  S
C1669      C1670   1.355       .  D
C1670      H1672   1.087       .  S
C1673      H1675   1.087       .  S
C1673      C1674   1.358       .  D
C1674      H1676   1.086       .  S
C1677      H1679   1.087       .  S
C1677      C1678   1.357       .  D
C1678      H1680   1.086       .  S
C1681      H1683   1.086       .  S
C1681      C1682   1.356       .  D
C1682      H1684   1.086       .  S
C1685      H1687   1.084       .  S
C1685      C1686   1.356       .  D
C1686      H1688   1.086       .  S
C1689      H1691   1.085       .  S
C1689      C1690   1.347       .  D
C1690      H1692   1.084       .  S
C1693      H1695   1.086       .  S
C1693      C1694   1.345       .  D
C1694      H1696   1.085       .  S
C1697      H1699   1.088       .  S
C1697      C1698   1.335       .  D
C1698      H1700   1.087       .  S
C1701      H1703   1.088       .  S
C1701      C1702   1.360       .  D
C1702      H1704   1.086       .  S
C1705      H1707   1.086       .  S
C1705      C1706   1.355       .  D
C1706      H1708   1.087       .  S
C1709      H1711   1.086       .  S
C1709      C1710   1.363       .  D
C1710      H1712   1.085       .  S
C1713      H1715   1.087       .  S
C1713      C1714   1.344       .  D
C1714      H1716   1.085       .  S
C1717      H1719   1.086       .  S
C1717      C1718   1.341       .  D
C1718      H1720   1.087       .  S
C1721      H1723   1.087       .  S
C1721      C1722   1.357       .  D
C1722      H1724   1.086   1_455  S
C1725      H1727   1.087       .  S
C1725      C1726   1.359       .  D
C1726      H1728   1.086       .  S
C1729      H1731   1.084       .  S
C1729      C1730   1.355       .  D
C1730      H1732   1.083       .  S
C1733      H1735   1.086       .  S
C1733      C1734   1.356       .  D
C1734      H1736   1.087       .  S
C1737      H1739   1.081   1_655  S
C1737      C1738   1.339       .  D
C1738      H1740   1.087       .  S
C1741      H1743   1.087       .  S
C1741      C1742   1.337       .  D
C1742      H1744   1.087       .  S
C1745      H1747   1.087       .  S
C1745      C1746   1.356       .  D
C1746      H1748   1.086       .  S
C1749      H1751   1.087       .  S
C1749      C1750   1.356       .  D
C1750      H1752   1.086       .  S
C1753      H1755   1.086       .  S
C1753      C1754   1.355       .  D
C1754      H1756   1.086       .  S
C1757      H1759   1.085       .  S
C1757      C1758   1.354       .  D
C1758      H1760   1.086       .  S
C1761      H1763   1.086       .  S
C1761      C1762   1.343       .  D
C1762      H1764   1.086       .  S
C1765      H1767   1.086       .  S
C1765      C1766   1.345       .  D
C1766      H1768   1.088       .  S
C1769      H1771   1.087       .  S
C1769      C1770   1.356       .  D
C1770      H1772   1.086       .  S
C1773      H1775   1.086       .  S
C1773      C1774   1.357       .  D
C1774      H1776   1.087       .  S
C1777      H1779   1.087       .  S
C1777      C1778   1.350       .  D
C1778      H1780   1.087       .  S
C1781      H1783   1.084       .  S
C1781      C1782   1.352       .  D
C1782      H1784   1.086       .  S
C1785      H1787   1.085       .  S
C1785      C1786   1.343       .  D
C1786      H1788   1.087       .  S
C1789      H1791   1.086       .  S
C1789      C1790   1.343       .  D
C1790      H1792   1.086       .  S
C1793      H1795   1.087       .  S
C1793      C1794   1.353       .  D
C1794      H1796   1.086       .  S
C1797      H1799   1.088       .  S
C1797      C1798   1.354       .  D
C1798      H1800   1.086       .  S
C1801      H1803   1.087       .  S
C1801      C1802   1.355       .  D
C1802      H1804   1.086       .  S
C1805      H1807   1.086       .  S
C1805      C1806   1.354       .  D
C1806      H1808   1.083       .  S
C1809      H1811   1.087       .  S
C1809      C1810   1.344       .  D
C1810      H1812   1.086       .  S
C1813      H1815   1.087       .  S
C1813      C1814   1.336       .  D
C1814      H1816   1.087       .  S
C1817      H1819   1.088       .  S
C1817      C1818   1.353       .  D
C1818      H1820   1.086       .  S
C1821      H1823   1.087       .  S
C1821      C1822   1.356       .  D
C1822      H1824   1.086       .  S
C1825      H1827   1.086       .  S
C1825      C1826   1.355       .  D
C1826      H1828   1.086       .  S
C1829      H1831   1.083       .  S
C1829      C1830   1.355       .  D
C1830      H1832   1.086       .  S
C1833      H1835   1.088       .  S
C1833      C1834   1.346       .  D
C1834      H1836   1.086       .  S
C1837      H1839   1.086       .  S
C1837      C1838   1.340       .  D
C1838      H1840   1.086       .  S
C1841      H1843   1.086       .  S
C1841      C1842   1.356       .  D
C1842      H1844   1.087       .  S
C1845      H1847   1.088       .  S
C1845      C1846   1.357       .  D
C1846      H1848   1.086       .  S
C1849      H1851   1.085       .  S
C1849      C1850   1.351       .  D
C1850      H1852   1.087       .  S
C1853      H1855   1.086       .  S
C1853      C1854   1.357       .  D
C1854      H1856   1.086       .  S
C1857      H1859   1.087       .  S
C1857      C1858   1.346       .  D
C1858      H1860   1.086       .  S
C1861      H1863   1.086       .  S
C1861      C1862   1.341       .  D
C1862      H1864   1.086       .  S
C1865      H1867   1.087       .  S
C1865      C1866   1.355       .  D
C1866      H1868   1.086       .  S
C1869      H1871   1.087       .  S
C1869      C1870   1.354       .  D
C1870      H1872   1.086       .  S
C1873      H1875   1.086       .  S
C1873      C1874   1.356       .  D
C1874      H1876   1.087       .  S
C1877      H1879   1.084       .  S
C1877      C1878   1.354       .  D
C1878      H1880   1.086       .  S
C1881      H1883   1.086       .  S
C1881      C1882   1.342       .  D
C1882      H1884   1.086       .  S
C1885      H1887   1.087       .  S
C1885      C1886   1.347       .  D
C1886      H1888   1.086       .  S
