geometry optimzed in LAMMPS
_audit_creation_date              2020-11-30 
_audit_creation_method            'lammps2cif' 
_symmetry_space_group_name_H-M    'P1' 
_symmetry_Int_Tables_number       1 
_symmetry_cell_setting            triclinic 
loop_ 
_symmetry_equiv_pos_as_xyz 
  x,y,z 
_cell_length_a                    37.44023479 
_cell_length_b                    31.428772992202898 
_cell_length_c                    36.193893397544315 
_cell_angle_alpha                 90.15291677359932 
_cell_angle_beta                  90.3588052483423 
_cell_angle_gamma                 89.98935722609798 
loop_ 
_atom_site_label 
_atom_site_type_symbol 
_atom_site_fract_x 
_atom_site_fract_y 
_atom_site_fract_z 
_atom_site_charge 
C1          C  0.72723970  0.22566074  0.72635341     0.02900
C2          C  0.72712654  0.27051385  0.72321851     0.02900
C3          C  0.74847316  0.29470923  0.74747037    -0.17600
C4          C  0.77111872  0.27514288  0.77328785     0.02900
C5          C  0.77149222  0.23031322  0.77588187     0.02900
C6          C  0.74962072  0.20617902  0.75238624    -0.17600
H7          H  0.75011122  0.17177414  0.75429647     0.04900
H8          H  0.74784182  0.32911849  0.74590355     0.04900
O9          O  0.54722820  0.57146698  0.45544032    -0.77800
C10         C  0.43239766  0.55340687  0.43644181     0.83200
O11         O  0.49618935  0.55880696  0.57567212    -0.79000
O12         O  0.42366908  0.44875375  0.52147092    -0.80400
O13         O  0.52623015  0.41550341  0.44567472    -0.80200
O14         O  0.57527761  0.51025496  0.44561444    -0.78900
Zn15       Zn  0.50156859  0.55716497  0.48104107     1.55700
O16         O  0.46672824  0.41836700  0.44749822    -0.80300
Cd17       Cd  0.54235755  0.46891208  0.47592485     1.59700
Cd18       Cd  0.50024338  0.49776276  0.55227332     1.59600
O19         O  0.57214815  0.44437685  0.51934736    -0.80200
O20         O  0.49963927  0.49906745  0.49673214    -1.90800
Cd21       Cd  0.45424897  0.47234982  0.47792849     1.59900
O22         O  0.54540257  0.46612717  0.57077193    -0.80200
O23         O  0.42461991  0.51541879  0.44603565    -0.78900
C24         C  0.49346622  0.59417612  0.55865350     0.83700
C25         C  0.57343503  0.55071431  0.44236264     0.83300
O26         O  0.46133879  0.57064153  0.44702746    -0.77800
C27         C  0.49557251  0.39927070  0.43887806     0.84100
O28         O  0.49560328  0.59632516  0.52369035    -0.77900
C29         C  0.57000354  0.44528984  0.55445676     0.84300
C30         C  0.43044958  0.44457572  0.55589796     0.84600
O31         O  0.45797130  0.46131301  0.57089240    -0.80300
O32         O  0.45673879  0.06581226  0.54956150    -0.77800
C33         C  0.56989344  0.04545941  0.56366431     0.83200
O34         O  0.50370070  0.05693407  0.42653826    -0.79000
O35         O  0.57412941  0.93962970  0.48130248    -0.80400
O36         O  0.47063353  0.91261054  0.55522588    -0.80200
O37         O  0.42454323  0.00700100  0.55435104    -0.78900
Zn38       Zn  0.50023598  0.05167693  0.52103771     1.55700
O39         O  0.53024849  0.91355343  0.55591065    -0.80300
Cd40       Cd  0.45653812  0.96540258  0.52332636     1.59700
Cd41       Cd  0.50236492  0.99487958  0.44843858     1.59600
O42         O  0.42715810  0.94271168  0.47853032    -0.80200
O43         O  0.50074148  0.99413762  0.50408901    -1.90800
Cd44       Cd  0.54449154  0.96517608  0.52409087     1.59900
O45         O  0.45852028  0.96178565  0.42871266    -0.80200
O46         O  0.57623531  0.00679934  0.55507093    -0.78900
C47         C  0.50524404  0.09184169  0.44458921     0.83700
C48         C  0.42920866  0.04655051  0.56103802     0.83300
O49         O  0.54149120  0.06384053  0.55322483    -0.77800
C50         C  0.50062666  0.89639209  0.56462485     0.84100
O51         O  0.50410871  0.09246574  0.47963635    -0.77900
C52         C  0.43200966  0.94315109  0.44364004     0.84300
C53         C  0.57146447  0.94085397  0.44619787     0.84600
O54         O  0.54684044  0.96164768  0.42972012    -0.80300
C55         C  0.26698138  0.26941836  0.71714576     0.02900
C56         C  0.26435587  0.22444391  0.71850653     0.02900
C57         C  0.24054439  0.20566943  0.74356593    -0.17600
C58         C  0.21907571  0.23041975  0.76696582     0.02900
C59         C  0.22124035  0.27530509  0.76518773     0.02900
C60         C  0.24483901  0.29408658  0.74003024    -0.17600
H61         H  0.24682245  0.32851258  0.73906422     0.04900
H62         H  0.23926868  0.17124796  0.74549020     0.04900
O63         O  0.95842856  0.43215578  0.94792523    -0.77800
C64         C  0.07391501  0.45370119  0.93874611     0.83200
O65         O  0.00225686  0.44024423  0.07267806    -0.79000
O66         O  0.07217152  0.55872046  0.02222570    -0.80400
O67         O  0.97119837  0.58481471  0.94494072    -0.80200
O68         O  0.92554260  0.49113811  0.94598509    -0.78900
Zn69       Zn  0.00209916  0.44563252  0.97794938     1.55700
O70         O  0.03076501  0.58429708  0.94555662    -0.80300
Cd71       Cd  0.95710427  0.53288634  0.97707515     1.59700
Cd72       Cd  0.99991663  0.50206791  0.05148009     1.59600
O73         O  0.92824390  0.55848162  0.02100719    -0.80200
O74         O  0.00096358  0.50310623  0.99594086    -1.90800
Cd75       Cd  0.04496926  0.53274375  0.97775580     1.59900
O76         O  0.95571768  0.53410818  0.07147517    -0.80200
O77         O  0.07905769  0.49241381  0.94809861    -0.78900
C78         C  0.00518372  0.40542175  0.05478223     0.83700
C79         C  0.93071366  0.45224637  0.93720909     0.83300
O80         O  0.04533559  0.43440422  0.94735024    -0.77800
C81         C  0.00111182  0.60125147  0.93620492     0.84100
O82         O  0.00537173  0.40446245  0.01966625    -0.77900
C83         C  0.93144331  0.55649518  0.05610031     0.84300
C84         C  0.06743448  0.55825908  0.05704890     0.84600
O85         O  0.04236604  0.53694104  0.07184846    -0.80300
O86         O  0.04328419  0.92890476  0.04230243    -0.77800
C87         C  0.93110466  0.94859422  0.06172286     0.83200
O88         O  0.99502670  0.93996606  0.92032612    -0.79000
O89         O  0.92219281  0.04887624  0.97459551    -0.80400
O90         O  0.02683151  0.08323191  0.04915737    -0.80200
O91         O  0.07411915  0.98881853  0.04907646    -0.78900
Zn92       Zn  0.99861164  0.94267420  0.01496979     1.55700
O93         O  0.96721275  0.08189345  0.04654648    -0.80300
Cd94       Cd  0.04208213  0.03065030  0.01807006     1.59700
Cd95       Cd  0.99896255  0.00134162  0.94311315     1.59600
O96         O  0.07110233  0.05695803  0.97451784    -0.80200
O97         O  0.99844669  0.00046147  0.99861316    -1.90800
Cd98       Cd  0.95356207  0.02723078  0.01804135     1.59900
O99         O  0.04358736  0.03323254  0.92363965    -0.80200
O100        O  0.92412684  0.98688702  0.05247455    -0.78900
C101        C  0.99200917  0.90487930  0.93770734     0.83700
C102        C  0.07018498  0.94901371  0.05499311     0.83300
O103        O  0.95829355  0.92966129  0.04890872    -0.77800
C104        C  0.99645054  0.10010655  0.05545273     0.84100
O105        O  0.99335971  0.90321765  0.97273055    -0.77900
C106        C  0.06814633  0.05496064  0.93937198     0.84300
C107        C  0.92868934  0.05325487  0.94027417     0.84600
O108        O  0.95641328  0.03771823  0.92506016    -0.80300
C109        C  0.26990608  0.77383731  0.27610999     0.02900
C110        C  0.26794624  0.72892386  0.27634203     0.02900
C111        C  0.24409127  0.70819989  0.25249632    -0.17600
C112        C  0.22232996  0.73130090  0.22819809     0.02900
C113        C  0.22403273  0.77616532  0.22790748     0.02900
C114        C  0.24757201  0.79691924  0.25218979    -0.17600
H115        H  0.24886741  0.83137541  0.25211457     0.04900
H116        H  0.24285282  0.67373974  0.25241661     0.04900
C117        C  0.73378097  0.77071759  0.28164770     0.02900
C118        C  0.73587476  0.72590673  0.28191982     0.02900
C119        C  0.75812954  0.70522229  0.25645296    -0.17600
C120        C  0.77820369  0.72829596  0.23053889     0.02900
C121        C  0.77704002  0.77334090  0.23142026     0.02900
C122        C  0.75467602  0.79386201  0.25679350    -0.17600
H123        H  0.75331280  0.82832381  0.25702544     0.04900
H124        H  0.75949136  0.67076820  0.25651958     0.04900
C125        C  0.79826186  0.80017151  0.20604669    -0.11300
C126        C  0.82587812  0.82645498  0.21963758     0.04200
C127        C  0.84475752  0.85262689  0.19546580    -0.11900
C128        C  0.83652473  0.85341888  0.15760413     0.19000
C129        C  0.80886611  0.82713495  0.14394985    -0.08900
C130        C  0.78992935  0.80085738  0.16819512    -0.01900
H131        H  0.86639731  0.87204723  0.20616301     0.05500
C132        C  0.85977204  0.87847721  0.13276431     0.21000
H133        H  0.76867857  0.78083777  0.15751605     0.10700
C134        C  0.89540076  0.86584112  0.12909135    -0.15200
C135        C  0.91918058  0.88869194  0.10715784     0.03700
C136        C  0.90722689  0.92499205  0.08735617    -0.10600
C137        C  0.87154445  0.93818509  0.09182657    -0.00600
C138        C  0.84799708  0.91553023  0.11455090    -0.05700
H139        H  0.90493880  0.83808932  0.14389296     0.06700
H140        H  0.86182216  0.96617327  0.07755146     0.10100
Br141      Br  0.79702689  0.82458861  0.09236753    -0.05400
Br142      Br  0.83987750  0.82625619  0.27074628    -0.02400
Br143      Br  0.96794726  0.86934467  0.10805045     0.00500
Br144      Br  0.80064121  0.93742270  0.12125064    -0.03900
C145        C  0.20265031  0.80206566  0.20171810    -0.11300
C146        C  0.17624706  0.83048040  0.21432471     0.04200
C147        C  0.15711600  0.85521277  0.18899371    -0.11900
C148        C  0.16378375  0.85210711  0.15100648     0.19000
C149        C  0.19026322  0.82394790  0.13833814    -0.08900
C150        C  0.20961515  0.79935480  0.16369510    -0.01900
H151        H  0.13643341  0.87643282  0.19887853     0.05500
C152        C  0.14088771  0.87621218  0.12509929     0.21000
H153        H  0.23013780  0.77798664  0.15372295     0.10700
C154        C  0.15379649  0.91311155  0.10798986    -0.15200
C155        C  0.13173841  0.93736406  0.08460886     0.03700
C156        C  0.09590035  0.92477655  0.07838283    -0.10600
C157        C  0.08361169  0.88716578  0.09522482    -0.00600
C158        C  0.10566410  0.86305929  0.11822262    -0.05700
H159        H  0.18111693  0.92309377  0.11293016     0.06700
H160        H  0.05640638  0.87644723  0.09090671     0.10100
Br161      Br  0.19972644  0.81687608  0.08667813    -0.05400
Br162      Br  0.16431033  0.83548806  0.26564023    -0.02400
Br163      Br  0.15279100  0.98577521  0.06096890     0.00500
Br164      Br  0.08665948  0.81191145  0.13938289    -0.03900
C165        C  0.99520906  0.14395306  0.07031092    -0.11300
C166        C  0.97235793  0.17460307  0.05412542     0.04200
C167        C  0.97572439  0.21735119  0.06388336    -0.11900
C168        C  0.00174838  0.23079555  0.08927546     0.19000
C169        C  0.02316748  0.20021142  0.10718794    -0.08900
C170        C  0.02001123  0.15711103  0.09738432    -0.01900
H171        H  0.95944904  0.24073747  0.04963974     0.05500
C172        C  0.00874010  0.27707378  0.09159227     0.21000
H173        H  0.03765854  0.13401934  0.11012103     0.10700
C174        C  0.98178942  0.30415006  0.10488031    -0.15200
C175        C  0.98181289  0.34765918  0.09630673     0.03700
C176        C  0.00906835  0.36439579  0.07401371    -0.10600
C177        C  0.03754325  0.33806552  0.06358750    -0.00600
C178        C  0.03757665  0.29476477  0.07205467    -0.05700
H179        H  0.95918015  0.29077166  0.11932813     0.06700
H180        H  0.05857263  0.35062973  0.04631184     0.10100
Br181      Br  0.05761018  0.21616243  0.14412204    -0.05400
Br182      Br  0.93948697  0.16174779  0.01456331    -0.02400
Br183      Br  0.94159459  0.38133493  0.11098848     0.00500
Br184      Br  0.07477174  0.26036258  0.05112352    -0.03900
C185        C  0.00180048  0.64376951  0.91859343    -0.11300
C186        C  0.97390630  0.65918372  0.89579223     0.04200
C187        C  0.97241360  0.70255655  0.88686446    -0.11900
C188        C  0.99807964  0.73112935  0.90067095     0.19000
C189        C  0.02672784  0.71534531  0.92203389    -0.08900
C190        C  0.02881653  0.67201928  0.92993656    -0.01900
H191        H  0.95001663  0.71447345  0.87086662     0.05500
C192        C  0.99078253  0.77737496  0.89976483     0.21000
H193        H  0.05009501  0.66114310  0.94799335     0.10700
C194        C  0.96283814  0.79254649  0.92167741    -0.15200
C195        C  0.96064645  0.83552800  0.93089045     0.03700
C196        C  0.98680043  0.86417293  0.91818060    -0.10600
C197        C  0.01219405  0.84999649  0.89256283    -0.00600
C198        C  0.01418779  0.80669162  0.88311893    -0.05700
H199        H  0.94425657  0.77039708  0.93405025     0.06700
H200        H  0.03217733  0.87179239  0.88224808     0.10100
Br201      Br  0.06051870  0.75209995  0.94641658    -0.05400
Br202      Br  0.93664085  0.62310917  0.87694635    -0.02400
Br203      Br  0.92289975  0.85299512  0.96333971     0.00500
Br204      Br  0.05061218  0.78830740  0.84965443    -0.03900
C205        C  0.80039308  0.70447464  0.20346140    -0.11300
C206        C  0.78492030  0.67486907  0.17867194     0.04200
C207        C  0.80660534  0.65129698  0.15480353    -0.11900
C208        C  0.84371711  0.65690184  0.15482675     0.19000
C209        C  0.85920185  0.68708551  0.17885717    -0.08900
C210        C  0.83760292  0.71036188  0.20310363    -0.01900
H211        H  0.79446164  0.62850568  0.13604711     0.05500
C212        C  0.86573654  0.63085770  0.12956372     0.21000
H213        H  0.84994281  0.73278268  0.22204218     0.10700
C214        C  0.87376288  0.64641769  0.09435443    -0.15200
C215        C  0.89461136  0.62262021  0.06976692     0.03700
C216        C  0.90728364  0.58184014  0.08009552    -0.10600
C217        C  0.89913225  0.56653269  0.11557016    -0.00600
C218        C  0.87866580  0.59067681  0.14019014    -0.05700
H219        H  0.86432616  0.67762600  0.08625810     0.06700
H220        H  0.90900051  0.53577408  0.12437230     0.10100
Br221      Br  0.90971291  0.69711401  0.17960795    -0.05400
Br222      Br  0.73421782  0.66647937  0.17525311    -0.02400
Br223      Br  0.90740482  0.64963944  0.02416326     0.00500
Br224      Br  0.86976970  0.56815439  0.18847030    -0.03900
C225        C  0.19895535  0.70736190  0.20276240    -0.11300
C226        C  0.16252695  0.70116911  0.21030956     0.04200
C227        C  0.14163491  0.67669327  0.18623765    -0.11900
C228        C  0.15687929  0.65726479  0.15516172     0.19000
C229        C  0.19347584  0.66303923  0.14795542    -0.08900
C230        C  0.21418732  0.68805128  0.17170732    -0.01900
H231        H  0.11352546  0.67226999  0.19201902     0.05500
C232        C  0.13418842  0.63149288  0.13032377     0.21000
H233        H  0.24240759  0.69203175  0.16625876     0.10700
C234        C  0.12791877  0.64583673  0.09426956    -0.15200
C235        C  0.10663756  0.62246010  0.06974480     0.03700
C236        C  0.09119889  0.58365038  0.08132073    -0.10600
C237        C  0.09717061  0.56977881  0.11774045    -0.00600
C238        C  0.11845294  0.59328778  0.14216647    -0.05700
H239        H  0.13938223  0.67569161  0.08531944     0.06700
H240        H  0.08542715  0.54033039  0.12724664     0.10100
Br241      Br  0.21673283  0.63574158  0.10717812    -0.05400
Br242      Br  0.14075308  0.72323579  0.25412172    -0.02400
Br243      Br  0.09799545  0.64732995  0.02206643     0.00500
Br244      Br  0.12596313  0.57126872  0.19102041    -0.03900
C245        C  0.10112827  0.42990090  0.91728092    -0.11300
C246        C  0.10509601  0.38539560  0.92137523     0.04200
C247        C  0.12671176  0.36250963  0.89709697    -0.11900
C248        C  0.14656526  0.38314044  0.86976757     0.19000
C249        C  0.14501664  0.42797686  0.86757100    -0.08900
C250        C  0.12215104  0.45092216  0.89095777    -0.01900
H251        H  0.12796073  0.32820180  0.89956639     0.05500
C252        C  0.16726641  0.35690351  0.84309959     0.21000
H253        H  0.12027731  0.48513491  0.88801343     0.10700
C254        C  0.15933547  0.35969461  0.80517708    -0.15200
C255        C  0.17671138  0.33373722  0.77939926     0.03700
C256        C  0.20178424  0.30321791  0.79150067    -0.10600
C257        C  0.20991000  0.30060868  0.82932405    -0.00600
C258        C  0.19307808  0.32710130  0.85501875    -0.05700
H259        H  0.13923463  0.38194196  0.79558584     0.06700
H260        H  0.22995458  0.27826767  0.83887050     0.10100
Br261      Br  0.17435136  0.45930842  0.83391213    -0.05400
Br262      Br  0.08365140  0.35401811  0.96101652    -0.02400
Br263      Br  0.16467610  0.34075142  0.72814054     0.00500
Br264      Br  0.20757656  0.32237239  0.90580366    -0.03900
C265        C  0.09249925  0.08066894  0.91608097    -0.11300
C266        C  0.10601843  0.06520499  0.88226751     0.04200
C267        C  0.12616868  0.09191364  0.85949607    -0.11900
C268        C  0.13316404  0.13419622  0.86964412     0.19000
C269        C  0.12002494  0.14971250  0.90344296    -0.08900
C270        C  0.10012434  0.12292763  0.92646517    -0.01900
H271        H  0.13659474  0.07957312  0.83371917     0.05500
C272        C  0.15485589  0.16116126  0.84482145     0.21000
H273        H  0.08959793  0.13561812  0.95206649     0.10700
C274        C  0.13844197  0.18184639  0.81487171    -0.15200
C275        C  0.15875172  0.20525742  0.78959149     0.03700
C276        C  0.19609903  0.20823719  0.79416003    -0.10600
C277        C  0.21237460  0.18775770  0.82428344    -0.00600
C278        C  0.19208594  0.16449723  0.84954245    -0.05700
H279        H  0.10985715  0.17907448  0.81078214     0.06700
H280        H  0.24106552  0.18959419  0.82794358     0.10100
Br281      Br  0.12791156  0.20756871  0.91853935    -0.05400
Br282      Br  0.09926373  0.00737385  0.86658240    -0.02400
Br283      Br  0.13464403  0.23024443  0.74813123     0.00500
Br284      Br  0.21638046  0.13671266  0.88952480    -0.03900
C285        C  0.59713796  0.91629115  0.42395256    -0.11300
C286        C  0.60129686  0.87209005  0.42906362     0.04200
C287        C  0.62501683  0.84920695  0.40686134    -0.11900
C288        C  0.64509571  0.86973692  0.37962022     0.19000
C289        C  0.64130541  0.91401948  0.37483017    -0.08900
C290        C  0.61718371  0.93686351  0.39669522    -0.01900
H291        H  0.62731650  0.81508620  0.41036120     0.05500
C292        C  0.66815083  0.84400216  0.35508350     0.21000
H293        H  0.61432465  0.97083892  0.39267390     0.10700
C294        C  0.65872562  0.83986824  0.31766540    -0.15200
C295        C  0.67959375  0.81563279  0.29360817     0.03700
C296        C  0.71014638  0.79445742  0.30700355    -0.10600
C297        C  0.71938645  0.79802868  0.34450129    -0.00600
C298        C  0.69873643  0.82277098  0.36851664    -0.05700
H299        H  0.63508506  0.85569161  0.30714394     0.06700
H300        H  0.74313987  0.78235030  0.35487103     0.10100
Br301      Br  0.66927111  0.94472517  0.33954836    -0.05400
Br302      Br  0.57330428  0.84096938  0.46411070    -0.02400
Br303      Br  0.66525847  0.81203786  0.24270422     0.00500
Br304      Br  0.71436329  0.82853746  0.41884772    -0.03900
C305        C  0.29454107  0.79750346  0.30080936    -0.11300
C306        C  0.32099060  0.82474037  0.28658005     0.04200
C307        C  0.34272214  0.84801264  0.31073424    -0.11900
C308        C  0.33916779  0.84405674  0.34914630     0.19000
C309        C  0.31274426  0.81676284  0.36336319    -0.08900
C310        C  0.29053043  0.79410951  0.33918804    -0.01900
H311        H  0.36267756  0.86923665  0.29947597     0.05500
C312        C  0.36301861  0.86908974  0.37367339     0.21000
H313        H  0.26983091  0.77394747  0.35042759     0.10700
C314        C  0.34824653  0.89887203  0.39824333    -0.15200
C315        C  0.37012232  0.92331174  0.42152183     0.03700
C316        C  0.40749837  0.91899502  0.41955813    -0.10600
C317        C  0.42225710  0.88985532  0.39452418    -0.00600
C318        C  0.40044324  0.86463071  0.37201306    -0.05700
H319        H  0.31953149  0.90319265  0.39923126     0.06700
H320        H  0.45100228  0.88587408  0.39317449     0.10100
Br321      Br  0.30649410  0.80816884  0.41539597    -0.05400
Br322      Br  0.32927626  0.83058199  0.23452013    -0.02400
Br323      Br  0.34780095  0.96338945  0.45410369     0.00500
Br324      Br  0.42318722  0.82321743  0.34090729    -0.03900
C325        C  0.40290519  0.07100584  0.58324127    -0.11300
C326        C  0.39951405  0.11580294  0.57993636     0.04200
C327        C  0.37667561  0.13818608  0.60338169    -0.11900
C328        C  0.35681836  0.11721129  0.63041827     0.19000
C329        C  0.35922865  0.07259239  0.63321014    -0.08900
C330        C  0.38206232  0.04987428  0.60970043    -0.01900
H331        H  0.37434997  0.17236871  0.60051596     0.05500
C332        C  0.33338233  0.14287084  0.65471307     0.21000
H333        H  0.38426092  0.01573417  0.61287601     0.10700
C334        C  0.29620777  0.14014454  0.65036601    -0.15200
C335        C  0.27339638  0.16647336  0.67073576     0.03700
C336        C  0.28772599  0.19625247  0.69606764    -0.10600
C337        C  0.32493792  0.19856247  0.70069019    -0.00600
C338        C  0.34771885  0.17241450  0.68015863    -0.05700
H339        H  0.28493458  0.11809342  0.63040197     0.06700
H340        H  0.33631957  0.22082719  0.72040771     0.10100
Br341      Br  0.33317389  0.04162525  0.66981263    -0.05400
Br342      Br  0.42396275  0.14898801  0.54332988    -0.02400
Br343      Br  0.22302720  0.16207546  0.66138379     0.00500
Br344      Br  0.39822551  0.17777064  0.68819958    -0.03900
C345        C  0.49362687  0.35527506  0.42361070    -0.11300
C346        C  0.46740831  0.32604296  0.43586677     0.04200
C347        C  0.47077097  0.28274490  0.42758860    -0.11900
C348        C  0.49977114  0.26739779  0.40729860     0.19000
C349        C  0.52411395  0.29662750  0.39222015    -0.08900
C350        C  0.52114944  0.34011752  0.40070611    -0.01900
H351        H  0.45200387  0.26043549  0.43944099     0.05500
C352        C  0.50715142  0.22104477  0.40862828     0.21000
H353        H  0.54125069  0.36188037  0.39059304     0.10700
C354        C  0.48419433  0.19212935  0.39060233    -0.15200
C355        C  0.48530346  0.14843830  0.39896365     0.03700
C356        C  0.50932880  0.13349359  0.42612870    -0.10600
C357        C  0.53396853  0.16203925  0.44183053    -0.00600
C358        C  0.53291299  0.20533763  0.43362533    -0.05700
H359        H  0.46399163  0.20391060  0.37166906     0.06700
H360        H  0.55260363  0.15101522  0.46274386     0.10100
Br361      Br  0.56269334  0.27796586  0.36157935    -0.05400
Br362      Br  0.42894097  0.34122358  0.46834210    -0.02400
Br363      Br  0.45091665  0.11161065  0.37591739     0.00500
Br364      Br  0.56391388  0.24224103  0.46153780    -0.03900
C365        C  0.48735482  0.63450325  0.57863172    -0.11300
C366        C  0.46154263  0.66337995  0.56518877     0.04200
C367        C  0.46271531  0.70596336  0.57602766    -0.11900
C368        C  0.48924035  0.72049158  0.60037960     0.19000
C369        C  0.51192902  0.69068978  0.61772069    -0.08900
C370        C  0.51102201  0.64780927  0.60661719    -0.01900
H371        H  0.44466702  0.72846224  0.56304347     0.07100
C372        C  0.49713821  0.76663720  0.60023130     0.21000
H373        H  0.53057494  0.62579099  0.61770788     0.10700
C374        C  0.47240724  0.79572828  0.61479155    -0.15200
C375        C  0.47459274  0.83923777  0.60626970     0.03700
C376        C  0.50154606  0.85391906  0.58235274    -0.10600
C377        C  0.52785844  0.82519979  0.57050630    -0.00600
C378        C  0.52562685  0.78197629  0.57878396    -0.05700
H379        H  0.45042521  0.78428086  0.63134849     0.06700
H380        H  0.54874276  0.83570742  0.55206649     0.10100
Br381      Br  0.54621747  0.70816958  0.65426439    -0.05400
Br382      Br  0.42545010  0.64677851  0.53004224    -0.02400
Br383      Br  0.44038842  0.87713148  0.62794448     0.00500
Br384      Br  0.55928211  0.74458183  0.55536842    -0.03900
C385        C  0.60152935  0.57456128  0.42215791    -0.11300
C386        C  0.61047952  0.61713043  0.43145530     0.04200
C387        C  0.63413796  0.64014888  0.40934336    -0.11900
C388        C  0.64925939  0.62179295  0.37784338     0.19000
C389        C  0.64159980  0.57904378  0.36923392    -0.08900
C390        C  0.61811660  0.55569344  0.39143834    -0.01900
H391        H  0.64023830  0.67289793  0.41633990     0.05500
C392        C  0.67138018  0.64853745  0.35331354     0.21000
H393        H  0.61173831  0.52323295  0.38378031     0.10700
C394        C  0.70813782  0.65271330  0.36017555    -0.15200
C395        C  0.72942294  0.67819575  0.33742120     0.03700
C396        C  0.71393047  0.69992809  0.30732662    -0.10600
C397        C  0.67708296  0.69621423  0.30084054    -0.00600
C398        C  0.65581322  0.67086803  0.32361922    -0.05700
H399        H  0.72024371  0.63618078  0.38330649     0.06700
H400        H  0.66489013  0.71290755  0.27784079     0.10100
Br401      Br  0.66158917  0.55202938  0.32653759    -0.05400
Br402      Br  0.59215653  0.64579436  0.47434506    -0.02400
Br403      Br  0.77928629  0.68359048  0.34895700     0.00500
Br404      Br  0.60555151  0.66769216  0.31342587    -0.03900
C405        C  0.29133233  0.70250608  0.29998875    -0.11300
C406        C  0.32624566  0.69210197  0.28905853     0.04200
C407        C  0.34722641  0.66554832  0.31121817    -0.11900
C408        C  0.33398223  0.64927940  0.34449370     0.19000
C409        C  0.29924815  0.66032920  0.35577338    -0.08900
C410        C  0.27794529  0.68610146  0.33313904    -0.01900
H411        H  0.37414384  0.65784708  0.30266406     0.05500
C412        C  0.35816353  0.62411815  0.36833464     0.21000
H413        H  0.25111854  0.69412587  0.34174765     0.10700
C414        C  0.38724565  0.64484902  0.38467545    -0.15200
C415        C  0.41164389  0.62290319  0.40683647     0.03700
C416        C  0.40728464  0.57849179  0.41293421    -0.10600
C417        C  0.37787396  0.55785800  0.39631033    -0.00600
C418        C  0.35351909  0.58021214  0.37412279    -0.05700
H419        H  0.39088448  0.67866469  0.38022667     0.06700
H420        H  0.37385892  0.52405738  0.40025592     0.10100
Br421      Br  0.28073082  0.64334606  0.40277807    -0.05400
Br422      Br  0.34621785  0.71307682  0.24400596    -0.02400
Br423      Br  0.44923459  0.65726165  0.42783667     0.00500
Br424      Br  0.31506728  0.54919469  0.35141214    -0.03900
C425        C  0.29262962  0.29191859  0.69261303    -0.11300
C426        C  0.31815150  0.32045338  0.70732072     0.04200
C427        C  0.33936859  0.34473227  0.68369750    -0.11900
C428        C  0.33672538  0.34019197  0.64520219     0.19000
C429        C  0.31338971  0.30908410  0.63053032    -0.08900
C430        C  0.29098747  0.28601536  0.65412763    -0.01900
H431        H  0.35830189  0.36711583  0.69547319     0.05500
C432        C  0.36002823  0.36677965  0.62139861     0.21000
H433        H  0.27228974  0.26333304  0.64240443     0.10700
C434        C  0.39717879  0.36356045  0.62563248    -0.15200
C435        C  0.42032773  0.38903621  0.60506720     0.03700
C436        C  0.40646204  0.41823190  0.57899398    -0.10600
C437        C  0.36922866  0.42148735  0.57470106    -0.00600
C438        C  0.34604769  0.39682621  0.59622686    -0.05700
H439        H  0.40827173  0.34100488  0.64515840     0.06700
H440        H  0.35811779  0.44418315  0.55532082     0.10100
Br441      Br  0.31290354  0.29499559  0.57891539    -0.05400
Br442      Br  0.32670923  0.32552198  0.75951275    -0.02400
Br443      Br  0.47067799  0.38080136  0.61288099     0.00500
Br444      Br  0.29572005  0.40771772  0.59230956    -0.03900
C445        C  0.79513594  0.20729453  0.80180978    -0.11300
C446        C  0.78859294  0.20639484  0.84007188     0.04200
C447        C  0.81098300  0.18272977  0.86330385    -0.11900
C448        C  0.83932119  0.15890775  0.84874563     0.19000
C449        C  0.84476831  0.15828876  0.81026715    -0.08900
C450        C  0.82290602  0.18263038  0.78723799    -0.01900
H451        H  0.80588774  0.18222904  0.89274228     0.05500
C452        C  0.86190156  0.13326025  0.87375746     0.21000
H453        H  0.82715526  0.18174530  0.75764800     0.10700
C454        C  0.84676202  0.09876466  0.89262825    -0.15200
C455        C  0.86793709  0.07232379  0.91483280     0.03700
C456        C  0.90488773  0.07992700  0.91770631    -0.10600
C457        C  0.91980148  0.11497855  0.89949594    -0.00600
C458        C  0.89852446  0.14209672  0.87825557    -0.05700
H459        H  0.81852505  0.09201318  0.88956731     0.06700
H460        H  0.94803965  0.12182245  0.90249966     0.10100
Br461      Br  0.88010042  0.12263878  0.78756732    -0.05400
Br462      Br  0.74761500  0.23338544  0.86132254    -0.02400
Br463      Br  0.84566245  0.02517318  0.93906626     0.00500
Br464      Br  0.92031311  0.19170747  0.85721419    -0.03900
C465        C  0.79400705  0.30238839  0.79699971    -0.11300
C466        C  0.83107411  0.30576894  0.79120457     0.04200
C467        C  0.85181970  0.33143143  0.81459980    -0.11900
C468        C  0.83601645  0.35422083  0.84358791     0.19000
C469        C  0.79890950  0.35172007  0.84877965    -0.08900
C470        C  0.77813750  0.32633488  0.82525716    -0.01900
H471        H  0.88033235  0.33368033  0.81019181     0.05500
C472        C  0.85878160  0.37980522  0.86856049     0.21000
H473        H  0.74956100  0.32465610  0.82941279     0.10700
C474        C  0.86303780  0.42346855  0.86209544    -0.15200
C475        C  0.88546825  0.44818242  0.88468472     0.03700
C476        C  0.90428261  0.42892176  0.91421085    -0.10600
C477        C  0.89936371  0.38520374  0.92079100    -0.00600
C478        C  0.87670496  0.36078216  0.89843425    -0.05700
H479        H  0.84924566  0.43820216  0.83905665     0.06700
H480        H  0.91328514  0.36985978  0.94344619     0.10100
Br481      Br  0.77583019  0.38144671  0.88831824    -0.05400
Br482      Br  0.85416806  0.27787315  0.75065703    -0.02400
Br483      Br  0.89106807  0.50707685  0.87206256     0.00500
Br484      Br  0.87075915  0.30155218  0.90968303    -0.03900
C485        C  0.59561833  0.07022321  0.58621303    -0.11300
C486        C  0.59764231  0.11517216  0.58353758     0.04200
C487        C  0.62072459  0.13776517  0.60666950    -0.11900
C488        C  0.64241235  0.11676613  0.63235321     0.19000
C489        C  0.64093369  0.07211541  0.63490119    -0.08900
C490        C  0.61778088  0.04916347  0.61175843    -0.01900
H491        H  0.62183305  0.17213874  0.60460796     0.05500
C492        C  0.66567413  0.14269422  0.65652349     0.21000
H493        H  0.61664404  0.01485486  0.61424454     0.10700
C494        C  0.65737343  0.14645921  0.69408697    -0.15200
C495        C  0.67705312  0.17357548  0.71709462     0.03700
C496        C  0.70516836  0.19791682  0.70238139    -0.10600
C497        C  0.71354028  0.19407990  0.66482742    -0.00600
C498        C  0.69411123  0.16654460  0.64191372    -0.05700
H499        H  0.63519216  0.12873196  0.70537391     0.06700
H500        H  0.73549427  0.21213461  0.65348692     0.10100
Br501      Br  0.67032235  0.04124278  0.66912686    -0.05400
Br502      Br  0.57114685  0.14838259  0.54812774    -0.02400
Br503      Br  0.66378558  0.17746406  0.76812312     0.00500
Br504      Br  0.70792521  0.16146074  0.59112421    -0.03900
C505        C  0.70453293  0.29315004  0.69572176    -0.11300
C506        C  0.71960231  0.32171691  0.67013137     0.04200
C507        C  0.69744274  0.34542917  0.64678759    -0.11900
C508        C  0.66026079  0.34092434  0.64810219     0.19000
C509        C  0.64521318  0.31077744  0.67217839    -0.08900
C510        C  0.66730455  0.28764131  0.69611630    -0.01900
H511        H  0.70925180  0.36786463  0.62774662     0.05500
C512        C  0.63784472  0.36830148  0.62426081     0.21000
H513        H  0.65532121  0.26571920  0.71545091     0.10700
C514        C  0.63874415  0.36260842  0.58591651    -0.15200
C515        C  0.61810731  0.38805190  0.56233080     0.03700
C516        C  0.59563539  0.42011984  0.57730289    -0.10600
C517        C  0.59589777  0.42638705  0.61587659    -0.00600
C518        C  0.61689935  0.40116355  0.63917637    -0.05700
H519        H  0.65543796  0.33788954  0.57429077     0.06700
H520        H  0.57959173  0.45099842  0.62820471     0.10100
Br521      Br  0.59483861  0.29956286  0.67279390    -0.05400
Br522      Br  0.77027550  0.32890808  0.66518371    -0.02400
Br523      Br  0.62195349  0.37559197  0.51044771     0.00500
Br524      Br  0.61702935  0.41375237  0.69110933    -0.03900
loop_ 
_geom_bond_atom_site_label_1 
_geom_bond_atom_site_label_2 
_geom_bond_distance 
_geom_bond_site_symmetry_2 
_ccdc_geom_bond_type 
C1            C2   1.415       .  A
C1            C6   1.399       .  A
C1          C496   1.478       .  S
C2            C3   1.405       .  A
C2          C505   1.485       .  S
C3            C4   1.401       .  A
C3            H8   1.083       .  S
C4            C5   1.412       .  A
C4          C465   1.480       .  S
C5            C6   1.399       .  A
C5          C445   1.477       .  S
C6            H7   1.084       .  S
O9           C25   1.271       .  A
O9          Zn15   2.001       .  S
C10         C416   1.491       .  S
C10          O26   1.268       .  A
C10          O23   1.278       .  A
O11          C24   1.276       .  A
O11         Cd18   2.101       .  S
O12          C30   1.277       .  A
O12         Cd21   2.091       .  S
O13          C27   1.278       .  A
O13         Cd17   2.089       .  S
O14          C25   1.279       .  A
O14         Cd17   2.106       .  S
Zn15         O26   1.986       .  S
Zn15         O28   1.985       .  S
Zn15         O20   1.915       .  S
O16          C27   1.275       .  A
O16         Cd21   2.075       .  S
Cd17         O19   2.072       .  S
Cd17         O20   2.009       .  S
Cd18         O22   2.070       .  S
Cd18         O31   2.071       .  S
Cd18         O20   2.011       .  S
O19          C29   1.274       .  A
O20         Cd21   2.010       .  S
Cd21         O23   2.095       .  S
O22          C29   1.277       .  A
C24         C365   1.476       .  S
C24          O28   1.270       .  A
C25         C385   1.489       .  S
C27         C345   1.489       .  S
C29         C516   1.491       .  S
C30         C436   1.485       .  S
C30          O31   1.275       .  A
O32          C48   1.268       .  A
O32         Zn38   1.983       .  S
C33         C485   1.479       .  S
C33          O49   1.266       .  A
C33          O46   1.276       .  A
O34          C47   1.277       .  A
O34         Cd41   2.108   1_545  S
O35          C53   1.275       .  A
O35         Cd44   2.071       .  S
O36          C50   1.278       .  A
O36         Cd40   2.090       .  S
O37          C48   1.278       .  A
O37         Cd40   2.101   1_545  S
Zn38         O49   1.966       .  S
Zn38         O51   1.981       .  S
Zn38         O43   1.908   1_545  S
O39          C50   1.275       .  A
O39         Cd44   2.064       .  S
Cd40         O42   2.078       .  S
Cd40         O43   2.014       .  S
Cd41         O45   2.066       .  S
Cd41         O54   2.081       .  S
Cd41         O43   2.016       .  S
O42          C52   1.277       .  A
O43         Cd44   2.006       .  S
Cd44         O46   2.087   1_565  S
O45          C52   1.276       .  A
C47         C356   1.480       .  S
C47          O51   1.270       .  A
C48         C325   1.488       .  S
C50         C376   1.483       .  S
C52         C316   1.471       .  S
C53         C285   1.475       .  S
C53          O54   1.276       .  A
C55          C56   1.418       .  A
C55          C60   1.407       .  A
C55         C425   1.492       .  S
C56          C57   1.407       .  A
C56         C336   1.488       .  S
C57          C58   1.405       .  A
C57          H62   1.085       .  S
C58          C59   1.415       .  A
C58         C276   1.486       .  S
C59          C60   1.404       .  A
C59         C256   1.487       .  S
C60          H61   1.085       .  S
O63          C79   1.274       .  A
O63         Zn69   2.002   1_655  S
C64         C245   1.486       .  S
C64          O80   1.271       .  A
C64          O77   1.276       .  A
O65          C78   1.275       .  A
O65         Cd72   2.093   1_455  S
O66          C84   1.274       .  A
O66         Cd75   2.066   1_554  S
O67          C81   1.275   1_655  A
O67         Cd71   2.077       .  S
O68          C79   1.277       .  A
O68         Cd71   2.088       .  S
Zn69         O80   1.998       .  S
Zn69         O82   1.994   1_556  S
Zn69         O74   1.919       .  S
O70          C81   1.276       .  A
O70         Cd75   2.066       .  S
Cd71         O73   2.087   1_556  S
Cd71         O74   2.007   1_655  S
Cd72         O76   2.070       .  S
Cd72         O85   2.062   1_655  S
Cd72         O74   2.011   1_654  S
O73          C83   1.277       .  A
O74         Cd75   2.008       .  S
Cd75         O77   2.097       .  S
O76          C83   1.275       .  A
C78         C176   1.474       .  S
C78          O82   1.271       .  A
C79         C476   1.482       .  S
C81         C185   1.482       .  S
C83         C216   1.488       .  S
C84         C236   1.479       .  S
C84          O85   1.275       .  A
O86         C102   1.272       .  A
O86         Zn92   1.986   1_455  S
C87         C136   1.491       .  S
C87         O103   1.269       .  A
C87         O100   1.277       .  A
O88         C101   1.276       .  A
O88         Cd95   2.101   1_565  S
O89         C107   1.275       .  A
O89         Cd98   2.073   1_556  S
O90         C104   1.276   1_455  A
O90         Cd94   2.079       .  S
O91         C102   1.278       .  A
O91         Cd94   2.102   1_565  S
Zn92        O103   1.995       .  S
Zn92        O105   1.975   1_554  S
Zn92         O97   1.912   1_564  S
O93         C104   1.275       .  A
O93         Cd98   2.064       .  S
Cd94         O96   2.092   1_554  S
Cd94         O97   2.012   1_454  S
Cd95         O99   2.077   1_655  S
Cd95        O108   2.064       .  S
Cd95         O97   2.009       .  S
O96         C106   1.278       .  A
O97         Cd98   2.009   1_556  S
Cd98        O100   2.098   1_545  S
O99         C106   1.276       .  A
C101        C196   1.472       .  S
C101        O105   1.270       .  A
C102        C156   1.489       .  S
C104        C165   1.479       .  S
C106        C265   1.486       .  S
C107        C456   1.469       .  S
C107        O108   1.275       .  A
C109        C110   1.414       .  A
C109        C114   1.403       .  A
C109        C305   1.480       .  S
C110        C111   1.398       .  A
C110        C405   1.477       .  S
C111        C112   1.399       .  A
C111        H116   1.084       .  S
C112        C113   1.412       .  A
C112        C225   1.472       .  S
C113        C114   1.401       .  A
C113        C145   1.482       .  S
C114        H115   1.084       .  S
C117        C118   1.411       .  A
C117        C122   1.401       .  A
C117        C296   1.479       .  S
C118        C119   1.405       .  A
C118        C396   1.484       .  S
C119        C120   1.408       .  A
C119        H124   1.084       .  S
C120        C121   1.417       .  A
C120        C205   1.489       .  S
C121        C122   1.402       .  A
C121        C125   1.483       .  S
C122        H123   1.084       .  S
C125        C126   1.409       .  A
C125        C130   1.403       .  A
C126        C127   1.398       .  A
C126       Br142   1.920       .  S
C127        C128   1.403       .  A
C127        H131   1.083       .  S
C128        C129   1.411       .  A
C128        C132   1.483       .  S
C129        C130   1.402       .  A
C129       Br141   1.918       .  S
C130        H133   1.083       .  S
C132        C134   1.399       .  A
C132        C138   1.409       .  A
C134        C135   1.397       .  A
C134        H139   1.084       .  S
C135        C136   1.420       .  A
C135       Br143   1.924       .  S
C136        C137   1.409       .  A
C137        C138   1.405       .  A
C137        H140   1.083       .  S
C138       Br144   1.918       .  S
C145        C146   1.409       .  A
C145        C150   1.405       .  A
C146        C147   1.398       .  A
C146       Br162   1.919       .  S
C147        C148   1.402       .  A
C147        H151   1.084       .  S
C148        C149   1.407       .  A
C148        C152   1.477       .  S
C149        C150   1.400       .  A
C149       Br161   1.918       .  S
C150        H153   1.083       .  S
C152        C154   1.403       .  A
C152        C158   1.403       .  A
C154        C155   1.405       .  A
C154        H159   1.084       .  S
C155        C156   1.415       .  A
C155       Br163   1.919       .  S
C156        C157   1.410       .  A
C157        C158   1.394       .  A
C157        H160   1.083       .  S
C158       Br164   1.921       .  S
C165        C166   1.414       .  A
C165        C170   1.407   1_655  A
C166        C167   1.394       .  A
C166       Br182   1.924       .  S
C167        C168   1.400   1_655  A
C167        H171   1.084       .  S
C168        C169   1.409       .  A
C168        C172   1.480       .  S
C169        C170   1.404       .  A
C169       Br181   1.917       .  S
C170        H173   1.083       .  S
C172        C174   1.406   1_455  A
C172        C178   1.410       .  A
C174        C175   1.403       .  A
C174        H179   1.083       .  S
C175        C176   1.408   1_655  A
C175       Br183   1.917       .  S
C176        C177   1.402       .  A
C177        C178   1.396       .  A
C177        H180   1.084       .  S
C178       Br184   1.921       .  S
C185        C186   1.413   1_455  A
C185        C190   1.405       .  A
C186        C187   1.403       .  A
C186       Br202   1.919       .  S
C187        C188   1.404       .  A
C187        H191   1.083       .  S
C188        C189   1.409   1_655  A
C188        C192   1.479       .  S
C189        C190   1.394       .  A
C189       Br201   1.922       .  S
C190        H193   1.083       .  S
C192        C194   1.400       .  A
C192        C198   1.411   1_655  A
C194        C195   1.393       .  A
C194        H199   1.084       .  S
C195        C196   1.410       .  A
C195       Br203   1.922       .  S
C196        C197   1.404   1_655  A
C197        C198   1.404       .  A
C197        H200   1.083       .  S
C198       Br204   1.918       .  S
C205        C206   1.413       .  A
C205        C210   1.406       .  A
C206        C207   1.400       .  A
C206       Br222   1.920       .  S
C207        C208   1.401       .  A
C207        H211   1.084       .  S
C208        C209   1.408       .  A
C208        C212   1.480       .  S
C209        C210   1.402       .  A
C209       Br221   1.917       .  S
C210        H213   1.083       .  S
C212        C214   1.401       .  A
C212        C218   1.406       .  A
C214        C215   1.402       .  A
C214        H219   1.083       .  S
C215        C216   1.417       .  A
C215       Br223   1.922       .  S
C216        C217   1.408       .  A
C217        C218   1.401       .  A
C217        H220   1.083       .  S
C218       Br224   1.918       .  S
C225        C226   1.406       .  A
C225        C230   1.400       .  A
C226        C227   1.397       .  A
C226       Br242   1.916       .  S
C227        C228   1.403       .  A
C227        H231   1.083       .  S
C228        C229   1.408       .  A
C228        C232   1.474       .  S
C229        C230   1.395       .  A
C229       Br241   1.919       .  S
C230        H233   1.083       .  S
C232        C234   1.400       .  A
C232        C238   1.407       .  A
C234        C235   1.397       .  A
C234        H239   1.083       .  S
C235        C236   1.415       .  A
C235       Br243   1.922       .  S
C236        C237   1.406       .  A
C237        C238   1.397       .  A
C237        H240   1.083       .  S
C238       Br244   1.920       .  S
C245        C246   1.415       .  A
C245        C250   1.406       .  A
C246        C247   1.396       .  A
C246       Br262   1.923       .  S
C247        C248   1.401       .  A
C247        H251   1.083       .  S
C248        C249   1.413       .  A
C248        C252   1.489       .  S
C249        C250   1.405       .  A
C249       Br261   1.919       .  S
C250        H253   1.083       .  S
C252        C254   1.405       .  A
C252        C258   1.412       .  A
C254        C255   1.401       .  A
C254        H259   1.083       .  S
C255        C256   1.411       .  A
C255       Br263   1.920       .  S
C256        C257   1.403       .  A
C257        C258   1.399       .  A
C257        H260   1.083       .  S
C258       Br264   1.919       .  S
C265        C266   1.412       .  A
C265        C270   1.408       .  A
C266        C267   1.402       .  A
C266       Br282   1.919       .  S
C267        C268   1.402       .  A
C267        H271   1.084       .  S
C268        C269   1.407       .  A
C268        C272   1.483       .  S
C269        C270   1.404       .  A
C269       Br281   1.920       .  S
C270        H273   1.084       .  S
C272        C274   1.404       .  A
C272        C278   1.407       .  A
C274        C275   1.403       .  A
C274        H279   1.083       .  S
C275        C276   1.410       .  A
C275       Br283   1.916       .  S
C276        C277   1.403       .  A
C277        C278   1.400       .  A
C277        H280   1.083       .  S
C278       Br284   1.917       .  S
C285        C286   1.410       .  A
C285        C290   1.403       .  A
C286        C287   1.399       .  A
C286       Br302   1.920       .  S
C287        C288   1.402       .  A
C287        H291   1.084       .  S
C288        C289   1.410       .  A
C288        C292   1.481       .  S
C289        C290   1.401       .  A
C289       Br301   1.919       .  S
C290        H293   1.083       .  S
C292        C294   1.403       .  A
C292        C298   1.410       .  A
C294        C295   1.398       .  A
C294        H299   1.083       .  S
C295        C296   1.407       .  A
C295       Br303   1.919       .  S
C296        C297   1.403       .  A
C297        C298   1.401       .  A
C297        H300   1.082       .  S
C298       Br304   1.918       .  S
C305        C306   1.410       .  A
C305        C310   1.402       .  A
C306        C307   1.396       .  A
C306       Br322   1.921       .  S
C307        C308   1.403       .  A
C307        H311   1.084       .  S
C308        C309   1.410       .  A
C308        C312   1.480       .  S
C309        C310   1.397       .  A
C309       Br321   1.919       .  S
C310        H313   1.083       .  S
C312        C314   1.405       .  A
C312        C318   1.410       .  A
C314        C315   1.400       .  A
C314        H319   1.084       .  S
C315        C316   1.408       .  A
C315       Br323   1.918       .  S
C316        C317   1.402       .  A
C317        C318   1.396       .  A
C317        H320   1.085       .  S
C318       Br324   1.921       .  S
C325        C326   1.419       .  A
C325        C330   1.407       .  A
C326        C327   1.397       .  A
C326       Br342   1.925       .  S
C327        C328   1.399       .  A
C327        H331   1.083       .  S
C328        C329   1.409       .  A
C328        C332   1.483       .  S
C329        C330   1.404       .  A
C329       Br341   1.918       .  S
C330        H333   1.082       .  S
C332        C334   1.402       .  A
C332        C338   1.410       .  A
C334        C335   1.401       .  A
C334        H339   1.084       .  S
C335        C336   1.412       .  A
C335       Br343   1.919       .  S
C336        C337   1.404       .  A
C337        C338   1.400       .  A
C337        H340   1.084       .  S
C338       Br344   1.919       .  S
C345        C346   1.419       .  A
C345        C350   1.409       .  A
C346        C347   1.398       .  A
C346       Br362   1.924       .  S
C347        C348   1.400       .  A
C347        H351   1.084       .  S
C348        C349   1.408       .  A
C348        C352   1.484       .  S
C349        C350   1.405       .  A
C349       Br361   1.917       .  S
C350        H353   1.083       .  S
C352        C354   1.407       .  A
C352        C358   1.408       .  A
C354        C355   1.407       .  A
C354        H359   1.083       .  S
C355        C356   1.410       .  A
C355       Br363   1.917       .  S
C356        C357   1.404       .  A
C357        C358   1.394       .  A
C357        H360   1.084       .  S
C358       Br364   1.922       .  S
C365        C366   1.411       .  A
C365        C370   1.405       .  A
C366        C367   1.394       .  A
C366       Br382   1.921       .  S
C367        C368   1.400       .  A
C367        H371   1.084       .  S
C368        C369   1.410       .  A
C368        C372   1.480       .  S
C369        C370   1.406       .  A
C369       Br381   1.917       .  S
C370        H373   1.083       .  S
C372        C374   1.405       .  A
C372        C378   1.409       .  A
C374        C375   1.405       .  A
C374        H379   1.083       .  S
C375        C376   1.412       .  A
C375       Br383   1.919       .  S
C376        C377   1.404       .  A
C377        C378   1.395       .  A
C377        H380   1.083       .  S
C378       Br384   1.922       .  S
C385        C386   1.418       .  A
C385        C390   1.407       .  A
C386        C387   1.400       .  A
C386       Br402   1.923       .  S
C387        C388   1.399       .  A
C387        H391   1.083       .  S
C388        C389   1.408       .  A
C388        C392   1.481       .  S
C389        C390   1.403       .  A
C389       Br401   1.917       .  S
C390        H393   1.083       .  S
C392        C394   1.403       .  A
C392        C398   1.408       .  A
C394        C395   1.402       .  A
C394        H399   1.083       .  S
C395        C396   1.409       .  A
C395       Br403   1.918       .  S
C396        C397   1.403       .  A
C397        C398   1.400       .  A
C397        H400   1.084       .  S
C398       Br404   1.918       .  S
C405        C406   1.406       .  A
C405        C410   1.403       .  A
C406        C407   1.397       .  A
C406       Br422   1.917       .  S
C407        C408   1.403       .  A
C407        H411   1.083       .  S
C408        C409   1.409       .  A
C408        C412   1.478       .  S
C409        C410   1.399       .  A
C409       Br421   1.918       .  S
C410        H413   1.083       .  S
C412        C414   1.396       .  A
C412        C418   1.407       .  A
C414        C415   1.395       .  A
C414        H419   1.084       .  S
C415        C416   1.423       .  A
C415       Br423   1.925       .  S
C416        C417   1.409       .  A
C417        C418   1.401       .  A
C417        H420   1.083       .  S
C418       Br424   1.918       .  S
C425        C426   1.411       .  A
C425        C430   1.406       .  A
C426        C427   1.399       .  A
C426       Br442   1.920       .  S
C427        C428   1.403       .  A
C427        H431   1.083       .  S
C428        C429   1.412       .  A
C428        C432   1.488       .  S
C429        C430   1.404       .  A
C429       Br441   1.919       .  S
C430        H433   1.083       .  S
C432        C434   1.402       .  A
C432        C438   1.412       .  A
C434        C435   1.399       .  A
C434        H439   1.083       .  S
C435        C436   1.414       .  A
C435       Br443   1.922       .  S
C436        C437   1.405       .  A
C437        C438   1.405       .  A
C437        H440   1.083       .  S
C438       Br444   1.919       .  S
C445        C446   1.408       .  A
C445        C450   1.402       .  A
C446        C447   1.399       .  A
C446       Br462   1.917       .  S
C447        C448   1.403       .  A
C447        H451   1.084       .  S
C448        C449   1.409       .  A
C448        C452   1.476       .  S
C449        C450   1.395       .  A
C449       Br461   1.921       .  S
C450        H453   1.084       .  S
C452        C454   1.404       .  A
C452        C458   1.407       .  A
C454        C455   1.400       .  A
C454        H459   1.083       .  S
C455        C456   1.407       .  A
C455       Br463   1.918       .  S
C456        C457   1.403       .  A
C457        C458   1.396       .  A
C457        H460   1.084       .  S
C458       Br464   1.921       .  S
C465        C466   1.409       .  A
C465        C470   1.403       .  A
C466        C467   1.400       .  A
C466       Br482   1.918       .  S
C467        C468   1.403       .  A
C467        H471   1.083       .  S
C468        C469   1.405       .  A
C468        C472   1.475       .  S
C469        C470   1.398       .  A
C469       Br481   1.917       .  S
C470        H473   1.083       .  S
C472        C474   1.402       .  A
C472        C478   1.404       .  A
C474        C475   1.402       .  A
C474        H479   1.083       .  S
C475        C476   1.414       .  A
C475       Br483   1.920       .  S
C476        C477   1.407       .  A
C477        C478   1.397       .  A
C477        H480   1.083       .  S
C478       Br484   1.920       .  S
C485        C486   1.418       .  A
C485        C490   1.405       .  A
C486        C487   1.393       .  A
C486       Br502   1.925       .  S
C487        C488   1.397       .  A
C487        H491   1.084       .  S
C488        C489   1.408       .  A
C488        C492   1.475       .  S
C489        C490   1.400       .  A
C489       Br501   1.917       .  S
C490        H493   1.083       .  S
C492        C494   1.401       .  A
C492        C498   1.409       .  A
C494        C495   1.397       .  A
C494        H499   1.083       .  S
C495        C496   1.409       .  A
C495       Br503   1.919       .  S
C496        C497   1.402       .  A
C497        C498   1.398       .  A
C497        H500   1.082       .  S
C498       Br504   1.919       .  S
C505        C506   1.412       .  A
C505        C510   1.405       .  A
C506        C507   1.397       .  A
C506       Br522   1.920       .  S
C507        C508   1.400       .  A
C507        H511   1.084       .  S
C508        C509   1.409       .  A
C508        C512   1.478       .  S
C509        C510   1.399       .  A
C509       Br521   1.919       .  S
C510        H513   1.083       .  S
C512        C514   1.399       .  A
C512        C518   1.405       .  A
C514        C515   1.400       .  A
C514        H519   1.083       .  S
C515        C516   1.421       .  A
C515       Br523   1.924       .  S
C516        C517   1.409       .  A
C517        C518   1.397       .  A
C517        H520   1.082       .  S
C518       Br524   1.920       .  S
