geometry optimzed in LAMMPS
_audit_creation_date              2020-11-30 
_audit_creation_method            'lammps2cif' 
_symmetry_space_group_name_H-M    'P1' 
_symmetry_Int_Tables_number       1 
_symmetry_cell_setting            triclinic 
loop_ 
_symmetry_equiv_pos_as_xyz 
  x,y,z 
_cell_length_a                    67.44302208 
_cell_length_b                    67.51774634268763 
_cell_length_c                    54.499303349163846 
_cell_angle_alpha                 90.034317977241 
_cell_angle_beta                  89.98073769030381 
_cell_angle_gamma                 89.8784381709871 
loop_ 
_atom_site_label 
_atom_site_type_symbol 
_atom_site_fract_x 
_atom_site_fract_y 
_atom_site_fract_z 
_atom_site_charge 
N1          N  0.67903022  0.09662461  0.87606875    -0.26500
N2          N  0.68289300  0.11520564  0.88199586    -0.34300
C3          C  0.67892936  0.12687618  0.86260614     0.01900
C4          C  0.67247722  0.11500159  0.84351196     0.07900
C5          C  0.67260961  0.09593967  0.85278517    -0.05200
H6          H  0.68172072  0.14264264  0.86197859     0.08600
H7          H  0.66885684  0.08244086  0.84317096     0.09800
Cu8        Cu  0.69584590  0.12338132  0.91489911     0.44200
Cu9        Cu  0.68388228  0.07265413  0.89886794     0.42000
Cu10       Cu  0.70008656  0.08432493  0.95995731     0.43900
N11         N  0.71176364  0.12599820  0.94721159    -0.33800
N12         N  0.71295358  0.11186877  0.96388002    -0.28100
C13         C  0.72604610  0.11723323  0.98121015    -0.04200
C14         C  0.73374941  0.13561555  0.97506512     0.08000
C15         C  0.72414178  0.14071846  0.95343743     0.01800
H16         H  0.73007125  0.10792211  0.99652753     0.09500
H17         H  0.72682120  0.15359438  0.94213264     0.08600
N18         N  0.69316895  0.05600685  0.94851236    -0.35300
N19         N  0.68832619  0.05149706  0.92569817    -0.27500
C20         C  0.68665703  0.03171307  0.92366594    -0.02700
C21         C  0.69044693  0.02346634  0.94641670     0.05900
C22         C  0.69445029  0.03928573  0.96172668     0.04000
H23         H  0.68275795  0.02397516  0.90696743     0.09100
H24         H  0.69860681  0.03865055  0.98088430     0.07900
N25         N  0.65328555  0.16095449  0.62839175    -0.26500
N26         N  0.67201529  0.16645255  0.63015660    -0.34300
C27         C  0.67806277  0.16411787  0.65342389     0.01900
C28         C  0.66237642  0.15682786  0.66708958     0.07900
C29         C  0.64690255  0.15494269  0.65052877    -0.05200
H30         H  0.69279848  0.16766312  0.65987826     0.08600
H31         H  0.63218765  0.14929395  0.65403831     0.09800
Cu32       Cu  0.68869908  0.17708228  0.60125996     0.44200
Cu33       Cu  0.63719324  0.16214730  0.59616044     0.42000
Cu34       Cu  0.66427416  0.17943055  0.54285085     0.43900
N35         N  0.70192218  0.18830254  0.57006573    -0.33800
N36         N  0.69297000  0.18906426  0.54854973    -0.28100
C37         C  0.70502277  0.19789652  0.53229570    -0.04200
C38         C  0.72241983  0.20305927  0.54418241     0.08000
C39         C  0.71992901  0.19663176  0.56813300     0.01800
H40         H  0.70108106  0.20094917  0.51343239     0.09500
H41         H  0.73029694  0.19792422  0.58316363     0.08600
N42         N  0.63461791  0.17178320  0.54240403    -0.35300
N43         N  0.62457346  0.16597121  0.56193357    -0.27500
C44         C  0.60536627  0.16393943  0.55585738    -0.02700
C45         C  0.60330163  0.16848214  0.53124353     0.05900
C46         C  0.62213979  0.17340273  0.52332363     0.04000
H47         H  0.59374426  0.15977710  0.56852251     0.09100
H48         H  0.62634151  0.17872285  0.50534164     0.07900
N49         N  0.89618290  0.32378324  0.37840042    -0.26500
N50         N  0.88804890  0.30624887  0.38189449    -0.34300
C51         C  0.88870678  0.29592268  0.36090229     0.01900
C52         C  0.89762904  0.30748315  0.34308030     0.07900
C53         C  0.90229037  0.32508285  0.35495246    -0.05200
H54         H  0.88214914  0.28144164  0.35855605     0.08600
H55         H  0.90924748  0.33805850  0.34721336     0.09800
Cu56       Cu  0.87377824  0.29793538  0.41362460     0.44200
Cu57       Cu  0.89664248  0.34551833  0.40523989     0.42000
Cu58       Cu  0.86713097  0.33500316  0.46000845     0.43900
N59         N  0.85541177  0.29432037  0.44343835    -0.33800
N60         N  0.85253793  0.30807779  0.46028978    -0.28100
C61         C  0.83856828  0.30179700  0.47604267    -0.04200
C62         C  0.83242092  0.28310431  0.46876887     0.08000
C63         C  0.84342575  0.27890649  0.44795192     0.01800
H64         H  0.83319309  0.31031697  0.49149403     0.09500
H65         H  0.84226610  0.26604582  0.43622308     0.08600
N66         N  0.88289908  0.36088738  0.45450733    -0.35300
N67         N  0.89340890  0.36476872  0.43460248    -0.27500
C68         C  0.90063592  0.38324631  0.43626007    -0.02700
C69         C  0.89448288  0.39137094  0.45832341     0.05900
C70         C  0.88327067  0.37674518  0.46941136     0.04000
H71         H  0.90940633  0.39035022  0.42217982     0.09100
H72         H  0.87514935  0.37782150  0.48647556     0.07900
N73         N  0.91438053  0.26137125  0.12679760    -0.26500
N74         N  0.89544507  0.25654478  0.12812090    -0.34300
C75         C  0.88876285  0.26042843  0.15083952     0.01900
C76         C  0.90422581  0.26814231  0.16461061     0.07900
C77         C  0.92028115  0.26839005  0.14867339    -0.05200
H78         H  0.87366312  0.25792163  0.15672783     0.08600
H79         H  0.93528044  0.27301452  0.15254309     0.09800
Cu80       Cu  0.87957009  0.24442748  0.09935646     0.44200
Cu81       Cu  0.93132479  0.25880385  0.09525053     0.42000
Cu82       Cu  0.90642121  0.23793230  0.04265282     0.43100
N83         N  0.86795076  0.23034220  0.06890337    -0.33800
N84         N  0.87784588  0.22781290  0.04822504    -0.28100
C85         C  0.86669657  0.21722937  0.03258462    -0.04200
C86         C  0.84882226  0.21286327  0.04393709     0.08000
C87         C  0.85021894  0.22145559  0.06698690     0.01800
H88         H  0.87167167  0.21252851  0.01464377     0.09500
H89         H  0.83926127  0.22114939  0.08147889     0.08600
N90         N  0.93505405  0.24883229  0.04167380    -0.35300
N91         N  0.94426289  0.25636264  0.06090474    -0.27500
C92         C  0.96256925  0.26202457  0.05414965    -0.02700
C93         C  0.96500901  0.25794328  0.02937723     0.05900
C94         C  0.94722170  0.24946979  0.02217873     0.04000
H95         H  0.97321715  0.26877335  0.06638979     0.09100
H96         H  0.94341027  0.24373197  0.00428024     0.07900
N97         N  0.91788089  0.60003827  0.59296673    -0.26500
N98         N  0.90885842  0.61740231  0.59152896    -0.34300
C99         C  0.91199951  0.62748124  0.61242039     0.01900
C100        C  0.92342108  0.61590033  0.62793613     0.07900
C101        C  0.92690090  0.59858088  0.61492487    -0.05200
H102        H  0.90578457  0.64192280  0.61634985     0.08600
H103        H  0.93527572  0.58579283  0.62091043     0.09800
Cu104      Cu  0.89137253  0.62635679  0.56224085     0.44200
Cu105      Cu  0.91669961  0.57873444  0.56552919     0.42000
Cu106      Cu  0.88872951  0.59263500  0.51154372     0.43900
N107        N  0.87324663  0.63085584  0.53201667    -0.33800
N108        N  0.87253002  0.61845654  0.51331627    -0.28100
C109        C  0.85844999  0.62441777  0.49756194    -0.04200
C110        C  0.84980411  0.64155328  0.50666311     0.08000
C111        C  0.85962978  0.64515936  0.52860789     0.01800
H112        H  0.85423138  0.61615119  0.48140771     0.09500
H113        H  0.85685144  0.65704007  0.54148316     0.08600
N114        N  0.90119670  0.56508981  0.51656031    -0.35300
N115        N  0.91124959  0.55979888  0.53630357    -0.27500
C116        C  0.91521507  0.54029928  0.53498947    -0.02700
C117        C  0.90715350  0.53297743  0.51341551     0.05900
C118        C  0.89842172  0.54917650  0.50222451     0.04000
H119        H  0.92231168  0.53191876  0.54944259     0.09100
H120        H  0.88994409  0.54930671  0.48538013     0.07900
N121        N  0.95366662  0.67071793  0.83861426    -0.26500
N122        N  0.93418127  0.66883740  0.83996003    -0.34300
C123        C  0.92746133  0.66140890  0.81863887     0.01900
C124        C  0.94343590  0.65855821  0.80300514     0.07900
C125        C  0.95982013  0.66460900  0.81637683    -0.05200
H126        H  0.91200413  0.65857203  0.81471360     0.08600
H127        H  0.97517431  0.66422140  0.81067642     0.09800
Cu128      Cu  0.91731049  0.67670313  0.87039127     0.44200
Cu129      Cu  0.97136775  0.68047528  0.86730447     0.42000
Cu130      Cu  0.94540882  0.68703117  0.92457243     0.43900
N131        N  0.90465852  0.68713070  0.90269669    -0.33800
N132        N  0.91513924  0.69067472  0.92266366    -0.28100
C133        C  0.90340828  0.69895275  0.93974675    -0.04200
C134        C  0.88447181  0.70075413  0.93016607     0.08000
C135        C  0.88586538  0.69306870  0.90657107     0.01800
H136        H  0.90871201  0.70442345  0.95718958     0.09500
H137        H  0.87427968  0.69245890  0.89287894     0.08600
N138        N  0.97581649  0.68757843  0.92140623    -0.35300
N139        N  0.98545555  0.68631617  0.90034647    -0.27500
C140        C  0.00502705  0.68794496  0.90471704    -0.02700
C141        C  0.00769965  0.69011380  0.92976288     0.05900
C142        C  0.98889208  0.68976131  0.93973940     0.04000
H143        H  0.01645171  0.68685670  0.89083834     0.09100
H144        H  0.98496654  0.69105733  0.95892612     0.07900
N145        N  0.68180062  0.77805530  0.34853009    -0.26500
N146        N  0.69712427  0.76593716  0.34660180    -0.34300
C147        C  0.70387907  0.76630997  0.32343095     0.01900
C148        C  0.69227013  0.77937362  0.31014013     0.07900
C149        C  0.67846589  0.78662272  0.32666180    -0.05200
H150        H  0.71663496  0.75807923  0.31698684     0.08600
H151        H  0.66676680  0.79720317  0.32304474     0.09800
Cu152      Cu  0.70886206  0.75031926  0.37573650     0.44200
Cu153      Cu  0.66606747  0.78206430  0.38068718     0.42000
Cu154      Cu  0.68544709  0.75708519  0.43468666     0.43900
N155        N  0.71932426  0.73791485  0.40783525    -0.33800
N156        N  0.71087542  0.74039632  0.42948995    -0.28100
C157        C  0.72147228  0.73059889  0.44651142    -0.04200
C158        C  0.73740809  0.72154192  0.43496630     0.08000
C159        C  0.73555585  0.72658697  0.41045987     0.01800
H160        H  0.71800925  0.73050529  0.46588754     0.09500
H161        H  0.74523797  0.72229920  0.39553489     0.08600
N162        N  0.65912931  0.77289423  0.43408180    -0.35300
N163        N  0.65200942  0.78181801  0.41438212    -0.27500
C164        C  0.63396723  0.78918843  0.41954398    -0.02700
C165        C  0.62945305  0.78464448  0.44368489     0.05900
C166        C  0.64583875  0.77443041  0.45235051     0.04000
H167        H  0.62473674  0.79690668  0.40643467     0.09100
H168        H  0.64756031  0.76767052  0.47021655     0.07900
N169        N  0.70804825  0.82275628  0.09345042    -0.26500
N170        N  0.71864404  0.80629080  0.09290091    -0.34300
C171        C  0.71923954  0.79847184  0.11550264     0.01900
C172        C  0.70845458  0.81056687  0.13109773     0.07900
C173        C  0.70149145  0.82582233  0.11645671    -0.05200
H174        H  0.72728862  0.78514795  0.12028146     0.08600
H175        H  0.69311727  0.83868831  0.12223227     0.09800
Cu176      Cu  0.73334185  0.79600441  0.06217820     0.44200
Cu177      Cu  0.70492222  0.84110366  0.06340429     0.42000
Cu178      Cu  0.73031819  0.82618339  0.00748895     0.43900
N179        N  0.74900676  0.79005616  0.03044360    -0.33800
N180        N  0.74789744  0.80103164  0.01043490    -0.28100
C181        C  0.76091952  0.79410410  0.99383369    -0.04200
C182        C  0.77085841  0.77804178  0.00393399     0.08000
C183        C  0.76274099  0.77585636  0.02712958     0.01800
H184        H  0.76307095  0.80055789  0.97588988     0.09500
H185        H  0.76706671  0.76527060  0.04103627     0.08600
N186        N  0.71486107  0.85261664  0.01131863    -0.35300
N187        N  0.70605396  0.85807768  0.03192797    -0.27500
C188        C  0.69934457  0.87669922  0.02953040    -0.02700
C189        C  0.70408015  0.88331795  0.00627517     0.05900
C190        C  0.71377364  0.86762529  0.99511952     0.04000
H191        H  0.69200494  0.88496283  0.04393233     0.09100
H192        H  0.72053180  0.86752647  0.97711211     0.07900
N193        N  0.20302935  0.63691045  0.37697718    -0.26500
N194        N  0.21450907  0.65266872  0.37886309    -0.34300
C195        C  0.21640837  0.66116318  0.35677160     0.01900
C196        C  0.20548062  0.65037221  0.34005872     0.07900
C197        C  0.19710358  0.63508680  0.35348280    -0.05200
H198        H  0.22518655  0.67423730  0.35316734     0.08600
H199        H  0.18798104  0.62315953  0.34658406     0.09800
Cu200      Cu  0.22799758  0.66179273  0.41074755     0.44200
Cu201      Cu  0.19772767  0.61801332  0.40630305     0.42000
Cu202      Cu  0.22399329  0.63043460  0.46326387     0.43900
N203        N  0.24248101  0.66748680  0.44318047    -0.33800
N204        N  0.24125995  0.65589445  0.46261151    -0.28100
C205        C  0.25389215  0.66254956  0.47981781    -0.04200
C206        C  0.26349574  0.67918311  0.47073443     0.08000
C207        C  0.25580873  0.68183138  0.44742149     0.01800
H208        H  0.25635574  0.65539817  0.49730776     0.09500
H209        H  0.26040156  0.69257810  0.43387186     0.08600
N210        N  0.20770700  0.60467643  0.45790455    -0.35300
N211        N  0.19815124  0.60027125  0.43744149    -0.27500
C212        C  0.19074530  0.58186644  0.43935018    -0.02700
C213        C  0.19589027  0.57416346  0.46208674     0.05900
C214        C  0.20663785  0.58915874  0.47330918     0.04000
H215        H  0.18288021  0.57439983  0.42475508     0.09100
H216        H  0.21429645  0.58848948  0.49070681     0.07900
N217        N  0.18426336  0.69717841  0.12544287    -0.26500
N218        N  0.20160348  0.70604262  0.12787101    -0.34300
C219        C  0.20830551  0.70327820  0.15080142     0.01900
C220        C  0.19454790  0.69207584  0.16345527     0.07900
C221        C  0.17954108  0.68835047  0.14676574    -0.05200
H222        H  0.22229108  0.70885142  0.15759338     0.08600
H223        H  0.16602306  0.68015584  0.14999052     0.09800
Cu224      Cu  0.21545291  0.72179605  0.10034492     0.44200
Cu225      Cu  0.16762124  0.69815359  0.09355363     0.42000
Cu226      Cu  0.18996024  0.72481578  0.04264794     0.43900
N227        N  0.22560378  0.73828506  0.07106936    -0.33800
N228        N  0.21609438  0.73963501  0.04995898    -0.28100
C229        C  0.22606008  0.75194535  0.03505662    -0.04200
C230        C  0.24270682  0.75863677  0.04739715     0.08000
C231        C  0.24197493  0.74955649  0.07014063     0.01800
H232        H  0.22167717  0.75538537  0.01644933     0.09500
H233        H  0.25244581  0.75115748  0.08504315     0.08600
N234        N  0.16264015  0.71106586  0.04097814    -0.35300
N235        N  0.15419596  0.70195154  0.05971821    -0.27500
C236        C  0.13587400  0.69622653  0.05315535    -0.02700
C237        C  0.13271501  0.70192077  0.02908209     0.05900
C238        C  0.15003676  0.71115766  0.02189944     0.04000
H239        H  0.12563397  0.68854194  0.06508330     0.09100
H240        H  0.15298523  0.71813938  0.00441420     0.07900
N241        N  0.41208063  0.87523928  0.87126317    -0.26500
N242        N  0.40026042  0.85976572  0.87358732    -0.34300
C243        C  0.39949207  0.85000321  0.85213434     0.01900
C244        C  0.41158384  0.85962531  0.83547249     0.07900
C245        C  0.41935657  0.87558614  0.84824988    -0.05200
H246        H  0.39100331  0.83665399  0.84904201     0.08600
H247        H  0.42926588  0.88683000  0.84126572     0.09800
Cu248      Cu  0.38603011  0.85214738  0.90584519     0.44200
Cu249      Cu  0.41692259  0.89541165  0.89945206     0.42000
Cu250      Cu  0.39448627  0.88297955  0.95850886     0.43900
N251        N  0.37302930  0.84721128  0.93965966    -0.33800
N252        N  0.37614887  0.85841895  0.95912663    -0.28100
C253        C  0.36436203  0.85225179  0.97750557    -0.04200
C254        C  0.35325121  0.83630745  0.96920580     0.08000
C255        C  0.35927868  0.83356148  0.94510335     0.01800
H256        H  0.36325484  0.85961703  0.99506683     0.09500
H257        H  0.35374090  0.82278509  0.93213247     0.08600
N258        N  0.40923523  0.90923391  0.95136877    -0.35300
N259        N  0.41706179  0.91396001  0.92992498    -0.27500
C260        C  0.42292868  0.93298646  0.93064535    -0.02700
C261        C  0.41857218  0.94068429  0.95366476     0.05900
C262        C  0.40998128  0.92506407  0.96627330     0.04000
H263        H  0.42860963  0.94091172  0.91492764     0.09100
H264        H  0.40376021  0.92537277  0.98455822     0.07900
N265        N  0.44588702  0.79931008  0.62797531    -0.26500
N266        N  0.42925657  0.78930112  0.63105182    -0.34300
C267        C  0.42227007  0.79270186  0.65374800     0.01900
C268        C  0.43506515  0.80555687  0.66557992     0.07900
C269        C  0.44983583  0.80952472  0.64861317    -0.05200
H270        H  0.40849200  0.78678710  0.66074062     0.08600
H271        H  0.46254448  0.81906467  0.65108719     0.09800
Cu272      Cu  0.41579564  0.77277550  0.60376927     0.44200
Cu273      Cu  0.46237509  0.79823989  0.59589189     0.42000
Cu274      Cu  0.44057690  0.76983832  0.54561026     0.43900
N275        N  0.40326123  0.76003243  0.57292861    -0.33800
N276        N  0.41226947  0.75899741  0.55146447    -0.28100
C277        C  0.39990215  0.75073336  0.53505852    -0.04200
C278        C  0.38213785  0.74635661  0.54674049     0.08000
C279        C  0.38490402  0.75256618  0.57078343     0.01800
H280        H  0.40361768  0.74821238  0.51600770     0.09500
H281        H  0.37425625  0.75240801  0.58559416     0.08600
N282        N  0.46882928  0.78179550  0.54500169    -0.35300
N283        N  0.47670767  0.79222293  0.56306057    -0.27500
C284        C  0.49547262  0.79689806  0.55710305    -0.02700
C285        C  0.49968843  0.78888627  0.53427864     0.05900
C286        C  0.48235258  0.77955045  0.52711983     0.04000
H287        H  0.50552185  0.80489525  0.56896453     0.09100
H288        H  0.47966471  0.77157368  0.51024569     0.07900
N289        N  0.13664224  0.27656391  0.82535797    -0.26500
N290        N  0.15453471  0.26878656  0.82265574    -0.34300
C291        C  0.16110647  0.27259201  0.79990319     0.01900
C292        C  0.14685282  0.28351417  0.78767187     0.07900
C293        C  0.13150821  0.28578857  0.80436901    -0.05200
H294        H  0.17560395  0.26842233  0.79311610     0.08600
H295        H  0.11768586  0.29361979  0.80156368     0.09800
Cu296      Cu  0.17065101  0.25498868  0.85012510     0.44200
Cu297      Cu  0.12022059  0.27454313  0.85760909     0.42000
Cu298      Cu  0.14651177  0.25052555  0.90771845     0.43900
N299        N  0.18465294  0.24368893  0.88090017    -0.33800
N300        N  0.17551984  0.24184554  0.90219162    -0.28100
C301        C  0.18816441  0.23414850  0.91867516    -0.04200
C302        C  0.20627412  0.23115046  0.90727470     0.08000
C303        C  0.20348361  0.23736489  0.88326971     0.01800
H304        H  0.18450659  0.23127132  0.93766741     0.09500
H305        H  0.21419366  0.23707948  0.86850371     0.08600
N306        N  0.11761621  0.26046862  0.90997397    -0.35300
N307        N  0.10786623  0.26929533  0.89200111    -0.27500
C308        C  0.08932223  0.27336124  0.89972693    -0.02700
C309        C  0.08736445  0.26673631  0.92372998     0.05900
C310        C  0.10564678  0.25866062  0.92949532     0.04000
H311        H  0.07799312  0.28004813  0.88838167     0.09100
H312        H  0.11000689  0.25184848  0.94662670     0.07900
N313        N  0.19005762  0.36009873  0.59177671    -0.26500
N314        N  0.20058884  0.34365152  0.58952170    -0.34300
C315        C  0.19762596  0.33223705  0.60932580     0.01900
C316        C  0.18456006  0.34186946  0.62484409     0.07900
C317        C  0.17989887  0.35943782  0.61305758    -0.05200
H318        H  0.20453585  0.31795168  0.61218934     0.08600
H319        H  0.17037222  0.37114447  0.61980428     0.09800
Cu320      Cu  0.21909774  0.33715804  0.56029559     0.44200
Cu321      Cu  0.19119654  0.38315400  0.56657562     0.42000
Cu322      Cu  0.22204815  0.37387486  0.51309043     0.43900
N323        N  0.23733304  0.33429068  0.52996387    -0.33800
N324        N  0.23830541  0.34782475  0.51253653    -0.28100
C325        C  0.25227119  0.34248931  0.49624171    -0.04200
C326        C  0.26056316  0.32467759  0.50372023     0.08000
C327        C  0.25064257  0.31991853  0.52521784     0.01800
H328        H  0.25635803  0.35122090  0.48040329     0.09500
H329        H  0.25346977  0.30748660  0.53721709     0.08600
N330        N  0.20722664  0.40028298  0.51948863    -0.35300
N331        N  0.19627745  0.40386580  0.53910124    -0.27500
C332        C  0.19001512  0.42279185  0.53839057    -0.02700
C333        C  0.19729466  0.43161543  0.51719559     0.05900
C334        C  0.20814504  0.41675944  0.50574227     0.04000
H335        H  0.18142622  0.42966537  0.55281378     0.09100
H336        H  0.21643331  0.41782058  0.48881299     0.07900
N337        N  0.40428892  0.15456321  0.07742489    -0.26500
N338        N  0.39020161  0.16816192  0.07619935    -0.34300
C339        C  0.39003969  0.17861845  0.09719465     0.01900
C340        C  0.40479217  0.17134545  0.11245827     0.07900
C341        C  0.41352768  0.15608015  0.09923005    -0.05200
H342        H  0.37968509  0.19045041  0.10116653     0.08600
H343        H  0.42509751  0.14614395  0.10537787     0.09800
Cu344      Cu  0.37103184  0.17127412  0.04669915     0.44200
Cu345      Cu  0.40900945  0.13341647  0.05029821     0.42000
Cu346      Cu  0.37868492  0.13827691  0.99554270     0.43900
N347        N  0.35343752  0.17128235  0.01550521    -0.33800
N348        N  0.35651349  0.15950473  0.99651615    -0.28100
C349        C  0.34226604  0.16267576  0.97971134    -0.04200
C350        C  0.32945613  0.17706708  0.98861179     0.08000
C351        C  0.33712121  0.18223963  0.01133724     0.01800
H352        H  0.34095862  0.15456802  0.96266707     0.09500
H353        H  0.33136497  0.19315035  0.02400823     0.08600
N354        N  0.39790474  0.11488327  0.00181360    -0.35300
N355        N  0.40864188  0.11281830  0.02193634    -0.27500
C356        C  0.41721557  0.09480614  0.02172170    -0.02700
C357        C  0.41166062  0.08505593  0.00039271     0.05900
C358        C  0.39942927  0.09832720  0.98824723     0.04000
H359        H  0.42614541  0.08895376  0.03653209     0.09100
H360        H  0.39099643  0.09564995  0.97170535     0.07900
N361        N  0.43669379  0.20891083  0.32887685    -0.26500
N362        N  0.42021745  0.21950369  0.32765849    -0.34300
C363        C  0.41368449  0.21964446  0.30437128     0.01900
C364        C  0.42661353  0.20856719  0.29011437     0.07900
C365        C  0.44099429  0.20191537  0.30634938    -0.05200
H366        H  0.40004196  0.22664314  0.29854260     0.08600
H367        H  0.45356821  0.19252776  0.30217351     0.09800
Cu368      Cu  0.40620558  0.23205248  0.35778089     0.44200
Cu369      Cu  0.45194693  0.20370821  0.36138740     0.42000
Cu370      Cu  0.42625017  0.21936079  0.41668540     0.43900
N371        N  0.39381754  0.24134872  0.39066177    -0.33800
N372        N  0.40124023  0.23662154  0.41227287    -0.28100
C373        C  0.38987800  0.24455988  0.42996886    -0.04200
C374        C  0.37432780  0.25479042  0.41907371     0.08000
C375        C  0.37738694  0.25232083  0.39401122     0.01800
H376        H  0.39283677  0.24289077  0.44935024     0.09500
H377        H  0.36821498  0.25753702  0.37911240     0.08600
N378        N  0.45296840  0.20446038  0.41674313    -0.35300
N379        N  0.46284867  0.19954423  0.39667883    -0.27500
C380        C  0.48059478  0.19211554  0.40321353    -0.02700
C381        C  0.48175527  0.19213290  0.42858495     0.05900
C382        C  0.46397422  0.20003183  0.43653460     0.04000
H383        H  0.49194040  0.18738362  0.39043917     0.09100
H384        H  0.45977572  0.20338467  0.45524564     0.07900
C385        C  0.43112828  0.18032487  0.17319485    -0.27400
C386        C  0.41570077  0.18804498  0.18768702     0.06200
C387        C  0.39684492  0.19056967  0.17706696     0.25900
C388        C  0.39355872  0.18537344  0.15258121    -0.11900
C389        C  0.40888765  0.17737791  0.13815913    -0.25800
C390        C  0.42780514  0.17498908  0.14870753     0.36700
C391        C  0.41928720  0.19350685  0.21375084     0.06300
F392        F  0.38138862  0.19748804  0.19056493    -0.19600
H393        H  0.37879498  0.18717472  0.14510624     0.16100
F394        F  0.44324529  0.16799776  0.13526812    -0.23300
H395        H  0.44587518  0.17862574  0.18078149     0.17900
C396        C  0.42899719  0.18042836  0.22990775     0.25900
C397        C  0.43170423  0.18558917  0.25456556    -0.11800
C398        C  0.42462272  0.20375499  0.26366961    -0.25900
C399        C  0.41524092  0.21696666  0.24739277     0.36800
C400        C  0.41271035  0.21188550  0.22272866    -0.27500
F401        F  0.43521160  0.16235253  0.22211490    -0.19600
H402        H  0.43884127  0.17507853  0.26670720     0.16100
F403        F  0.40885821  0.23499584  0.25510785    -0.23300
H404        H  0.40563077  0.22241413  0.21054883     0.17900
C405        C  0.29637665  0.28412047  0.48378366    -0.27400
C406        C  0.30988534  0.29488161  0.46942917     0.06200
C407        C  0.30721011  0.31541536  0.46679570     0.25900
C408        C  0.29118227  0.32488876  0.47800975    -0.11900
C409        C  0.27752148  0.31416993  0.49221812    -0.25800
C410        C  0.28034673  0.29362038  0.49513630     0.36700
C411        C  0.32640228  0.28462309  0.45669675     0.06300
F412        F  0.32031449  0.32641364  0.45372467    -0.19600
H413        H  0.28966424  0.34074632  0.47578978     0.16100
F414        F  0.26732174  0.28253815  0.50818850    -0.23300
H415        H  0.29800283  0.26823893  0.48577466     0.17900
C416        C  0.33906825  0.27164647  0.46936207     0.25900
C417        C  0.35452347  0.26207586  0.45700702    -0.11800
C418        C  0.35779920  0.26527755  0.43178348    -0.25900
C419        C  0.34512901  0.27848075  0.41923003     0.36800
C420        C  0.32957788  0.28787047  0.43158038    -0.27500
F421        F  0.33678399  0.26852939  0.49380617    -0.19600
H422        H  0.36382664  0.25205369  0.46736001     0.16100
F423        F  0.34780832  0.28277576  0.39517099    -0.23300
H424        H  0.31990623  0.29772022  0.42141406     0.17900
C425        C  0.27827882  0.19930730  0.97876122    -0.27400
C426        C  0.27683856  0.19925014  0.95306579     0.06200
C427        C  0.29275644  0.19176787  0.93917103     0.25900
C428        C  0.30975784  0.18456163  0.95086218    -0.11900
C429        C  0.31127417  0.18473485  0.97658748    -0.25800
C430        C  0.29523552  0.19206934  0.99046784     0.36700
C431        C  0.25875989  0.20710585  0.94097448     0.06300
F432        F  0.29172415  0.19105802  0.91431049    -0.19600
H433        H  0.32183178  0.17899270  0.93970826     0.16100
F434        F  0.29558099  0.19174749  0.01535037    -0.23300
H435        H  0.26624492  0.20508256  0.98983875     0.17900
C436        C  0.23979496  0.20103485  0.94859556     0.25900
C437        C  0.22285817  0.20894428  0.93753988    -0.11800
C438        C  0.22445755  0.22289288  0.91853713    -0.25900
C439        C  0.24342608  0.22891612  0.91082635     0.36800
C440        C  0.26037804  0.22110175  0.92202251    -0.27500
F441        F  0.23762720  0.18714996  0.96639594    -0.19600
H442        H  0.20844329  0.20391106  0.94364381     0.16100
F443        F  0.24563925  0.24289440  0.89316454    -0.23300
H444        H  0.27481745  0.22628239  0.91618876     0.17900
C445        C  0.18433738  0.31719768  0.68699258    -0.27400
C446        C  0.16432876  0.31879790  0.69386378     0.06200
C447        C  0.15120870  0.32937352  0.67860280     0.25900
C448        C  0.15797185  0.33746972  0.65644365    -0.11900
C449        C  0.17778607  0.33492159  0.64911777    -0.25800
C450        C  0.19100364  0.32501997  0.66482771     0.36700
C451        C  0.15756364  0.30910696  0.71682155     0.06300
F452        F  0.13174917  0.33116352  0.68457568    -0.19600
H453        H  0.14757675  0.34509749  0.64458956     0.16100
F454        F  0.21047527  0.32312984  0.65894547    -0.23300
H455        H  0.19487012  0.30972907  0.69882136     0.17900
C456        C  0.16324383  0.28947836  0.72198177     0.25900
C457        C  0.15907348  0.28110596  0.74478563    -0.11800
C458        C  0.14884266  0.29192822  0.76276563    -0.25900
C459        C  0.14212029  0.31115353  0.75719312     0.36800
C460        C  0.14657549  0.31968919  0.73441659    -0.27500
F461        F  0.17306915  0.27844313  0.70503691    -0.19600
H462        H  0.16410237  0.26616097  0.74853218     0.16100
F463        F  0.13242605  0.32216638  0.77424964    -0.23300
H464        H  0.14217575  0.33486640  0.73094246     0.17900
C465        C  0.43273413  0.99516739  0.95762001    -0.27400
C466        C  0.41976392  0.00201626  0.97592379     0.06200
C467        C  0.40689286  0.98849250  0.98729813     0.25900
C468        C  0.40696746  0.96857788  0.98034468    -0.11900
C469        C  0.41973030  0.96168132  0.96176975    -0.25800
C470        C  0.43282365  0.97521470  0.95062784     0.36700
C471        C  0.41906860  0.02338107  0.98224661     0.06300
F472        F  0.39357269  0.99467649  0.00435640    -0.19600
H473        H  0.39647803  0.95872697  0.98904853     0.16100
F474        F  0.44589513  0.96924363  0.93319637    -0.23300
H475        H  0.44284660  0.00533107  0.94871977     0.17900
C476        C  0.42018258  0.02979130  0.00676454     0.25900
C477        C  0.41830950  0.04990687  0.01246567    -0.11800
C478        C  0.41526125  0.06401712  0.99387955    -0.25900
C479        C  0.41485863  0.05764024  0.96927242     0.36800
C480        C  0.41677126  0.03752728  0.96359187    -0.27500
F481        F  0.42314880  0.01661739  0.02521400    -0.19600
H482        H  0.41872694  0.05433865  0.03154831     0.16100
F483        F  0.41277854  0.07079824  0.95063646    -0.23300
H484        H  0.41602277  0.03292905  0.94456750     0.17900
C485        C  0.43743741  0.84906282  0.77493772    -0.27400
C486        C  0.42224125  0.83976690  0.76161869     0.06200
C487        C  0.40334050  0.83804079  0.77231434     0.25900
C488        C  0.39997155  0.84482516  0.79616354    -0.11900
C489        C  0.41525296  0.85371411  0.80971848    -0.25800
C490        C  0.43400074  0.85605789  0.79876335     0.36700
C491        C  0.42630039  0.83101447  0.73714813     0.06300
F492        F  0.38808927  0.82984505  0.75964385    -0.19600
H493        H  0.38533264  0.84313042  0.80406113     0.16100
F494        F  0.44927827  0.86412806  0.81147791    -0.23300
H495        H  0.45216573  0.85033869  0.76717291     0.17900
C496        C  0.43554342  0.84201699  0.71846606     0.25900
C497        C  0.43878426  0.83351357  0.69536279    -0.11800
C498        C  0.43272777  0.81400521  0.69046504    -0.25900
C499        C  0.42393178  0.80288294  0.70935087     0.36800
C500        C  0.42082640  0.81132520  0.73242305    -0.27500
F501        F  0.44078746  0.86117286  0.72225982    -0.19600
H502        H  0.44550673  0.84239346  0.68107396     0.16100
F503        F  0.41870759  0.78370181  0.70573374    -0.23300
H504        H  0.41416896  0.80240645  0.74673051     0.17900
C505        C  0.26958999  0.79785508  0.01054994    -0.27400
C506        C  0.28933320  0.79461830  0.01769710     0.06200
C507        C  0.29345773  0.78031734  0.03572980     0.25900
C508        C  0.27812623  0.76904499  0.04577480    -0.11900
C509        C  0.25847315  0.77172320  0.03790729    -0.25800
C510        C  0.25426359  0.78652741  0.02050475     0.36700
C511        C  0.30557572  0.80555775  0.00549088     0.06300
F512        F  0.31239759  0.77657577  0.04278484    -0.19600
H513        H  0.28175693  0.75770506  0.05908512     0.16100
F514        F  0.23535726  0.79026250  0.01332126    -0.23300
H515        H  0.26606565  0.80910425  0.99706575     0.17900
C516        C  0.30694287  0.80584094  0.97978169     0.25900
C517        C  0.32245576  0.81582404  0.96827041    -0.11800
C518        C  0.33699923  0.82573270  0.98207278    -0.25900
C519        C  0.33563071  0.82539327  0.00789084     0.36800
C520        C  0.32002671  0.81540951  0.01940530    -0.27500
F521        F  0.29353052  0.79603488  0.96575274    -0.19600
H522        H  0.32290552  0.81586464  0.94843243     0.16100
F523        F  0.34954824  0.83420877  0.02212395    -0.23300
H524        H  0.31921424  0.81537300  0.03925496     0.17900
C525        C  0.19367156  0.52864264  0.50326083    -0.27400
C526        C  0.19142646  0.51346706  0.48591853     0.06200
C527        C  0.18912468  0.51841585  0.46107419     0.25900
C528        C  0.18996712  0.53819079  0.45361293    -0.11900
C529        C  0.19317889  0.55345201  0.47075264    -0.25800
C530        C  0.19458151  0.54846674  0.49583459     0.36700
C531        C  0.19253398  0.49249829  0.49365613     0.06300
F532        F  0.18625440  0.50406871  0.44398502    -0.19600
H533        H  0.18873221  0.54140118  0.43423103     0.16100
F534        F  0.19681389  0.56263541  0.51326269    -0.23300
H535        H  0.19528213  0.52507176  0.52253666     0.17900
C536        C  0.20737366  0.48004681  0.48420664     0.25900
C537        C  0.20873315  0.46037040  0.49190913    -0.11800
C538        C  0.19527228  0.45259515  0.50912087    -0.25900
C539        C  0.18025079  0.46513511  0.51839176     0.36800
C540        C  0.17907520  0.48493307  0.51085079    -0.27500
F541        F  0.22093273  0.48709483  0.46801125    -0.19600
H542        H  0.22062928  0.45136982  0.48459336     0.16100
F543        F  0.16638312  0.45831211  0.53427549    -0.23300
H544        H  0.16747612  0.49433968  0.51821016     0.17900
C545        C  0.33278109  0.71980630  0.53937981    -0.27400
C546        C  0.33034197  0.71994972  0.51383806     0.06200
C547        C  0.34468577  0.72929299  0.49919057     0.25900
C548        C  0.36136275  0.73795319  0.51002039    -0.11900
C549        C  0.36405254  0.73752334  0.53563813    -0.25800
C550        C  0.34942283  0.72838890  0.55023718     0.36700
C551        C  0.31316494  0.70967320  0.50273413     0.06300
F552        F  0.34291995  0.72947704  0.47437791    -0.19600
H553        H  0.37217461  0.74497685  0.49823455     0.16100
F554        F  0.35135929  0.72701318  0.57493380    -0.23300
H555        H  0.32180775  0.71279413  0.55099298     0.17900
C556        C  0.30907327  0.68988230  0.50886165     0.25900
C557        C  0.29274827  0.68023966  0.49868043    -0.11800
C558        C  0.28022116  0.69004856  0.48206342    -0.25900
C559        C  0.28427801  0.70992465  0.47597074     0.36800
C560        C  0.30063648  0.71959188  0.48623592    -0.27500
F561        F  0.32120729  0.67967411  0.52420446    -0.19600
H562        H  0.29022034  0.66488286  0.50341393     0.16100
F563        F  0.27222609  0.72020584  0.46061732    -0.23300
H564        H  0.30338518  0.73493528  0.48155947     0.17900
C565        C  0.18460764  0.65694335  0.27606856    -0.27400
C566        C  0.20097005  0.66504212  0.26366483     0.06200
C567        C  0.21902218  0.66723268  0.27629046     0.25900
C568        C  0.22038993  0.66208853  0.30100679    -0.11900
C569        C  0.20394652  0.65436326  0.31352391    -0.25800
C570        C  0.18608682  0.65148690  0.30075481     0.36700
C571        C  0.19898043  0.67191620  0.23796130     0.06300
F572        F  0.23539042  0.67425339  0.26471068    -0.19600
H573        H  0.23439234  0.66413106  0.31039626     0.16100
F574        F  0.16979556  0.64440057  0.31240262    -0.23300
H575        H  0.17047713  0.65538560  0.26683909     0.17900
C576        C  0.18997447  0.65999415  0.21997116     0.25900
C577        C  0.18825865  0.66679620  0.19584279    -0.11800
C578        C  0.19575119  0.68541212  0.18918087    -0.25900
C579        C  0.20457556  0.69740913  0.20720134     0.36800
C580        C  0.20602042  0.69073956  0.23135586    -0.27500
F581        F  0.18338823  0.64155077  0.22551835    -0.19600
H582        H  0.18152316  0.65727573  0.18220160     0.16100
F583        F  0.21130439  0.71580901  0.20168700    -0.23300
H584        H  0.21251771  0.70040988  0.24501589     0.17900
C585        C  0.54244336  0.77481508  0.49251481    -0.27400
C586        C  0.55552645  0.79063134  0.49623991     0.06200
C587        C  0.55027197  0.80584673  0.51258433     0.25900
C588        C  0.53208430  0.80519399  0.52490626    -0.11900
C589        C  0.51887910  0.78939091  0.52109199    -0.25800
C590        C  0.52434595  0.77407686  0.50486721     0.36700
C591        C  0.57454534  0.79094109  0.48284040     0.06300
F592        F  0.56249689  0.82153057  0.51616026    -0.19600
H593        H  0.52821689  0.81721458  0.53717536     0.16100
F594        F  0.51261754  0.75800706  0.50150465    -0.23300
H595        H  0.54642115  0.76282363  0.48022892     0.17900
C596        C  0.59268889  0.79125615  0.49546790     0.25900
C597        C  0.61051502  0.78968505  0.48252289    -0.11800
C598        C  0.61053786  0.78789825  0.45682519    -0.25900
C599        C  0.59232215  0.78808144  0.44419753     0.36800
C600        C  0.57453553  0.78951856  0.45717543    -0.27500
F601        F  0.59314233  0.79214734  0.52034439    -0.19600
H602        H  0.62432420  0.78960647  0.49265675     0.16100
F603        F  0.59152382  0.78576711  0.41949056    -0.23300
H604        H  0.56064561  0.78913357  0.44720182     0.17900
C605        C  0.70314856  0.77627488  0.24222226    -0.27400
C606        C  0.69950974  0.79581883  0.23465456     0.06200
C607        C  0.69308036  0.80984959  0.25200142     0.25900
C608        C  0.69050379  0.80433503  0.27651172    -0.11900
C609        C  0.69451600  0.78486280  0.28411507    -0.25800
C610        C  0.70080289  0.77082161  0.26671463     0.36700
C611        C  0.70233966  0.80119529  0.20859341     0.06300
F612        F  0.68984266  0.82896793  0.24540770    -0.19600
H613        H  0.68579522  0.81541607  0.28967530     0.16100
F614        F  0.70411873  0.75168905  0.27317326    -0.23300
H615        H  0.70766213  0.76512538  0.22903462     0.17900
C616        C  0.71983315  0.79576825  0.19627910     0.25900
C617        C  0.72173691  0.79915909  0.17118213    -0.11800
C618        C  0.70637740  0.80821693  0.15789785    -0.25900
C619        C  0.68916112  0.81438812  0.17036219     0.36800
C620        C  0.68716894  0.81079520  0.19551800    -0.27500
F621        F  0.73511779  0.78718884  0.20854321    -0.19600
H622        H  0.73532817  0.79469263  0.16212851     0.16100
F623        F  0.67388323  0.82297085  0.15811457    -0.23300
H624        H  0.67348985  0.81491830  0.20463040     0.17900
C625        C  0.05966872  0.70438266  0.94885298    -0.27400
C626        C  0.06173645  0.69375914  0.97088085     0.06200
C627        C  0.04604993  0.68171361  0.97893283     0.25900
C628        C  0.02853733  0.68064688  0.96539980    -0.11900
C629        C  0.02647948  0.69125295  0.94342546    -0.25800
C630        C  0.04221885  0.70306765  0.93510736     0.36700
C631        C  0.08000787  0.69566805  0.98571787     0.06300
F632        F  0.04777912  0.67071487  0.99967023    -0.19600
H633        H  0.01662333  0.67129803  0.97194701     0.16100
F634        F  0.04041771  0.71395971  0.91429919    -0.23300
H635        H  0.07143696  0.71401197  0.94254294     0.17900
C636        C  0.09883406  0.69349591  0.97494027     0.25900
C637        C  0.11592333  0.69559042  0.98917973    -0.11800
C638        C  0.11452101  0.69958977  0.01439667    -0.25900
C639        C  0.09570910  0.70173535  0.02519179     0.36800
C640        C  0.07864046  0.69988402  0.01090222    -0.27500
F641        F  0.10069651  0.68890360  0.95079589    -0.19600
H642        H  0.13028989  0.69378146  0.98056307     0.16100
F643        F  0.09379760  0.70638495  0.04931009    -0.23300
H644        H  0.06429798  0.70203152  0.01946447     0.17900
C645        C  0.84945827  0.72326197  0.97732011    -0.27400
C646        C  0.83516642  0.73215194  0.96218888     0.06200
C647        C  0.83687883  0.73019068  0.93660681     0.25900
C648        C  0.85272510  0.71968165  0.92640524    -0.11900
C649        C  0.86725977  0.71101153  0.94146029    -0.25800
C650        C  0.86537270  0.71278876  0.96714153     0.36700
C651        C  0.81875530  0.74381104  0.97307832     0.06300
F652        F  0.82310974  0.73830445  0.92146000    -0.19600
H653        H  0.85377462  0.71870340  0.90662916     0.16100
F654        F  0.87866648  0.70421311  0.98252031    -0.23300
H655        H  0.84843810  0.72467358  0.99708067     0.17900
C656        C  0.80653751  0.73574146  0.99139840     0.25900
C657        C  0.79098436  0.74693364  0.00126588    -0.11800
C658        C  0.78735753  0.76637550  0.99312473    -0.25900
C659        C  0.79985679  0.77450609  0.97503980     0.36800
C660        C  0.81532015  0.76327255  0.96513641    -0.27500
F661        F  0.80933358  0.71688218  0.99931924    -0.19600
H662        H  0.78160889  0.74024152  0.01507626     0.16100
F663        F  0.79768902  0.79350831  0.96743562    -0.23300
H664        H  0.82485736  0.76990306  0.95142798     0.17900
C665        C  0.81189612  0.66216260  0.46176801    -0.27400
C666        C  0.80065333  0.67464731  0.47696977     0.06200
C667        C  0.80540104  0.67588747  0.50202465     0.25900
C668        C  0.82130919  0.66503720  0.51150374    -0.11900
C669        C  0.83282458  0.65275629  0.49624066    -0.25800
C670        C  0.82788110  0.65141296  0.47115702     0.36700
C671        C  0.78440759  0.68670490  0.46638725     0.06300
F672        F  0.79505369  0.68804424  0.51721710    -0.19600
H673        H  0.82454738  0.66629161  0.53088517     0.16100
F674        F  0.83876517  0.64028456  0.45538254    -0.23300
H675        H  0.80836851  0.66083768  0.44244500     0.17900
C676        C  0.78763866  0.69811052  0.44519302     0.25900
C677        C  0.77227313  0.70934646  0.43517728    -0.11800
C678        C  0.75342687  0.70958525  0.44613555    -0.25900
C679        C  0.75018686  0.69823193  0.46741727     0.36800
C680        C  0.76556461  0.68686660  0.47736070    -0.27500
F681        F  0.80580069  0.69878614  0.43447956    -0.19600
H682        H  0.77526532  0.71814379  0.41899655     0.16100
F683        F  0.73205847  0.69754215  0.47817879    -0.23300
H684        H  0.76267255  0.67793725  0.49346925     0.17900
C685        C  0.93527780  0.61155911  0.69590859    -0.27400
C686        C  0.93747251  0.63154712  0.70249683     0.06200
C687        C  0.93621244  0.64613547  0.68417164     0.25900
C688        C  0.93212714  0.64082475  0.65992318    -0.11900
C689        C  0.92938151  0.62089094  0.65337193    -0.25800
C690        C  0.93133435  0.60620859  0.67157452     0.36700
C691        C  0.93993637  0.63726829  0.72858916     0.06300
F692        F  0.93802011  0.66561862  0.68989308    -0.19600
H693        H  0.93086778  0.65240503  0.64627000     0.16100
F694        F  0.92843387  0.58680155  0.66623399    -0.23300
H695        H  0.93629395  0.60009185  0.70974772     0.17900
C696        C  0.92619799  0.63100475  0.74635461     0.25900
C697        C  0.92763127  0.63777764  0.77052899    -0.11800
C698        C  0.94284784  0.65078982  0.77754959    -0.25900
C699        C  0.95690958  0.65664881  0.75987069     0.36800
C700        C  0.95538884  0.64995036  0.73564372    -0.27500
F701        F  0.91088936  0.61898983  0.74012255    -0.19600
H702        H  0.91670349  0.63289731  0.78375529     0.16100
F703        F  0.97159281  0.66955110  0.76559333    -0.23300
H704        H  0.96615026  0.65490750  0.72223783     0.17900
C705        C  0.03779222  0.28092693  0.95213481    -0.27400
C706        C  0.03579452  0.26636968  0.97036127     0.06200
C707        C  0.05076730  0.25204818  0.97307436     0.25900
C708        C  0.06744117  0.25239980  0.95792164    -0.11900
C709        C  0.06951764  0.26691765  0.93962092    -0.25800
C710        C  0.05450697  0.28128163  0.93690511     0.36700
C711        C  0.01769177  0.26557549  0.98570718     0.06300
F712        F  0.04893824  0.23724543  0.98976663    -0.19600
H713        H  0.07853697  0.24094448  0.96021167     0.16100
F714        F  0.05612445  0.29593471  0.92000770    -0.23300
H715        H  0.02640925  0.29211275  0.94980288     0.17900
C716        C  0.01890021  0.26453324  0.01142582     0.25900
C717        C  0.00170591  0.26236030  0.02549161    -0.11800
C718        C  0.98298598  0.26124164  0.01422285    -0.25900
C719        C  0.98179029  0.26306335  0.98849731     0.36800
C720        C  0.99899802  0.26519057  0.97447152    -0.27500
F721        F  0.03669983  0.26569565  0.02295876    -0.19600
H722        H  0.00314559  0.26115091  0.04521044     0.16100
F723        F  0.96405337  0.26308269  0.97678011    -0.23300
H724        H  0.99774984  0.26614498  0.95469030     0.17900
C725        C  0.90013520  0.43625395  0.49957895    -0.27400
C726        C  0.90107820  0.45155859  0.48224638     0.06200
C727        C  0.90057902  0.44695437  0.45714024     0.25900
C728        C  0.89885116  0.42729873  0.44952886    -0.11900
C729        C  0.89736307  0.41194736  0.46681467    -0.25800
C730        C  0.89816451  0.41657686  0.49199119     0.36700
C731        C  0.90253557  0.47231471  0.49041445     0.06300
F732        F  0.90191601  0.46147560  0.44000355    -0.19600
H733        H  0.89822382  0.42415539  0.43006261     0.16100
F734        F  0.89740616  0.40212495  0.50925720    -0.23300
H735        H  0.90065649  0.43960744  0.51901039     0.17900
C736        C  0.88787734  0.48612298  0.48390126     0.25900
C737        C  0.88955190  0.50582622  0.49134268    -0.11800
C738        C  0.90582627  0.51207868  0.50546405    -0.25900
C739        C  0.92046260  0.49816638  0.51202911     0.36800
C740        C  0.91872574  0.47842361  0.50462920    -0.27500
F741        F  0.87174722  0.48044013  0.47078141    -0.19600
H742        H  0.87788944  0.51610512  0.48637037     0.16100
F743        F  0.93674068  0.50370234  0.52491764    -0.23300
H744        H  0.93020339  0.46792720  0.50962974     0.17900
C745        C  0.90220962  0.31134020  0.27365625    -0.27400
C746        C  0.90145025  0.29131626  0.26682094     0.06200
C747        C  0.90040879  0.27675376  0.28514445     0.25900
C748        C  0.89963747  0.28220264  0.30981053    -0.11900
C749        C  0.89986829  0.30225886  0.31678598    -0.25800
C750        C  0.90135702  0.31684413  0.29837676     0.36700
C751        C  0.90188666  0.28570032  0.24059898     0.06300
F752        F  0.90046169  0.25721956  0.27922428    -0.19600
H753        H  0.89891016  0.27059875  0.32346900     0.16100
F754        F  0.90120710  0.33641394  0.30397745    -0.23300
H755        H  0.90300570  0.32277038  0.25974891     0.17900
C756        C  0.88735509  0.27315866  0.23067558     0.25900
C757        C  0.88826672  0.26753625  0.20604243    -0.11800
C758        C  0.90355196  0.27443797  0.19071501    -0.25900
C759        C  0.91782576  0.28741749  0.20063314     0.36800
C760        C  0.91694716  0.29292053  0.22532639    -0.27500
F761        F  0.87205958  0.26662479  0.24468671    -0.19600
H762        H  0.87700905  0.25761870  0.19909934     0.16100
F763        F  0.93240575  0.29523892  0.18654207    -0.23300
H764        H  0.92817301  0.30275018  0.23261883     0.17900
C765        C  0.56734518  0.16746331  0.47815045    -0.27400
C766        C  0.55016322  0.17546590  0.48887457     0.06200
C767        C  0.55024015  0.17996553  0.51410982     0.25900
C768        C  0.56740064  0.17699218  0.52802964    -0.11900
C769        C  0.58479482  0.16983208  0.51696333    -0.25800
C770        C  0.58456370  0.16484210  0.49194517     0.36700
C771        C  0.53254709  0.17956126  0.47340178     0.06300
F772        F  0.53407763  0.18808499  0.52507936    -0.19600
H773        H  0.56731899  0.18104791  0.54726061     0.16100
F774        F  0.60091713  0.15723918  0.48085397    -0.23300
H775        H  0.56748598  0.16336454  0.45893420     0.17900
C776        C  0.53463749  0.18926035  0.45068172     0.25900
C777        C  0.51809116  0.19281512  0.43596075    -0.11800
C778        C  0.49912285  0.18725516  0.44383977    -0.25900
C779        C  0.49692058  0.17774702  0.46661999     0.36800
C780        C  0.51354775  0.17377087  0.48113907    -0.27500
F781        F  0.55259494  0.19589320  0.44303823    -0.19600
H782        H  0.52003990  0.20048485  0.41867807     0.16100
F783        F  0.47878393  0.17188383  0.47456900    -0.23300
H784        H  0.51159235  0.16600880  0.49835186     0.17900
C785        C  0.80149768  0.23882893  0.48788027    -0.27400
C786        C  0.78619008  0.24802693  0.50105897     0.06200
C787        C  0.78615989  0.26871450  0.50366289     0.25900
C788        C  0.80126810  0.28000145  0.49317891    -0.11900
C789        C  0.81665582  0.27085937  0.47993951    -0.25800
C790        C  0.81666859  0.25008120  0.47745317     0.36700
C791        C  0.77034117  0.23598610  0.51218218     0.06300
F792        F  0.77125877  0.27802217  0.51585963    -0.19600
H793        H  0.80072018  0.29594928  0.49512300     0.16100
F794        F  0.83159335  0.24051584  0.46565002    -0.23300
H795        H  0.80183422  0.22285751  0.48598579     0.17900
C796        C  0.75855862  0.22353727  0.49762897     0.25900
C797        C  0.74316697  0.21271809  0.50825140    -0.11800
C798        C  0.73937823  0.21398553  0.53357237    -0.25900
C799        C  0.75147354  0.22623922  0.54817866     0.36800
C800        C  0.76676343  0.23715631  0.53747820    -0.27500
F801        F  0.76156656  0.22230461  0.47304336    -0.19600
H802        H  0.73419502  0.20333704  0.49660078     0.16100
F803        F  0.74813366  0.22836638  0.57258275    -0.23300
H804        H  0.77579429  0.24665470  0.54893844     0.17900
C805        C  0.70056410  0.96830652  0.94601493    -0.27400
C806        C  0.69272452  0.96262467  0.96886543     0.06200
C807        C  0.68319294  0.97699545  0.98347446     0.25900
C808        C  0.68239119  0.99669332  0.97585902    -0.11900
C809        C  0.69051658  0.00238050  0.95328508    -0.25800
C810        C  0.69929181  0.98798250  0.93812198     0.36700
C811        C  0.69552274  0.94211174  0.97808549     0.06300
F812        F  0.67458886  0.97201817  0.00512598    -0.19600
H813        H  0.67531696  0.00755807  0.98761338     0.16100
F814        F  0.70759117  0.99309929  0.91634269    -0.23300
H815        H  0.70828025  0.95765733  0.93460177     0.17900
C816        C  0.69237319  0.92549345  0.96293357     0.25900
C817        C  0.69546628  0.90636026  0.97207854    -0.11800
C818        C  0.70128054  0.90349453  0.99653828    -0.25900
C819        C  0.70447813  0.92005632  0.01162631     0.36800
C820        C  0.70185070  0.93911676  0.00236430    -0.27500
F821        F  0.68582566  0.92768843  0.93954440    -0.19600
H822        H  0.69288030  0.89374522  0.96022216     0.16100
F823        F  0.71082225  0.91788220  0.03510688    -0.23300
H824        H  0.70503319  0.95160816  0.01418781     0.17900
C825        C  0.77962259  0.14791283  0.01293328    -0.27400
C826        C  0.78244396  0.16787344  0.00687477     0.06200
C827        C  0.76891383  0.17728121  0.99117240     0.25900
C828        C  0.75292105  0.16679131  0.98149392    -0.11900
C829        C  0.75018729  0.14663117  0.98701163    -0.25800
C830        C  0.76374919  0.13728166  0.00303268     0.36700
C831        C  0.79974568  0.17876887  0.01645740     0.06300
F832        F  0.77108366  0.19670666  0.98536992    -0.19600
H833        H  0.74269607  0.17455461  0.96958979     0.16100
F834        F  0.76233619  0.11774773  0.00847435    -0.23300
H835        H  0.79006512  0.14040680  0.02485061     0.17900
C836        C  0.80289846  0.18064404  0.04179602     0.25900
C837        C  0.81891213  0.19167900  0.05055020    -0.11800
C838        C  0.83214812  0.20091344  0.03421151    -0.25900
C839        C  0.82906942  0.19870838  0.00877481     0.36800
C840        C  0.81300042  0.18774778  0.00008770    -0.27500
F841        F  0.79017916  0.17227490  0.05805938    -0.19600
H842        H  0.82094592  0.19290321  0.07018654     0.16100
F843        F  0.84108275  0.20762658  0.99218155    -0.23300
H844        H  0.81080074  0.18635035  0.98047073     0.17900
C845        C  0.67319993  0.11523367  0.77421346    -0.27400
C846        C  0.66472065  0.13372073  0.76896629     0.06200
C847        C  0.65788416  0.14569209  0.78831379     0.25900
C848        C  0.66022080  0.13943692  0.81262256    -0.11900
C849        C  0.66904079  0.12104873  0.81785944    -0.25800
C850        C  0.67536013  0.10889796  0.79838424     0.36700
C851        C  0.66401099  0.14058971  0.74328648     0.06300
F852        F  0.64967386  0.16368913  0.78374450    -0.19600
H853        H  0.65524757  0.14899165  0.82737298     0.16100
F854        F  0.68460319  0.09136359  0.80263796    -0.23300
H855        H  0.67847871  0.10580567  0.75949071     0.17900
C856        C  0.68144745  0.14108920  0.72922531     0.25900
C857        C  0.68073695  0.14652352  0.70458912    -0.11800
C858        C  0.66264465  0.15155460  0.69343612    -0.25900
C859        C  0.64519585  0.15142807  0.70769101     0.36800
C860        C  0.64594471  0.14600336  0.73244707    -0.27500
F861        F  0.69922424  0.13640143  0.73939298    -0.19600
H862        H  0.69439449  0.14643399  0.69416053     0.16100
F863        F  0.62748872  0.15685095  0.69796407    -0.23300
H864        H  0.63237430  0.14571661  0.74307669     0.17900
loop_ 
_geom_bond_atom_site_label_1 
_geom_bond_atom_site_label_2 
_geom_bond_distance 
_geom_bond_site_symmetry_2 
_ccdc_geom_bond_type 
N1            N2   1.322       .  A
N1            C5   1.342       .  A
N1           Cu9   2.067       .  S
N2            C3   1.345       .  A
N2           Cu8   2.070       .  S
C3            C4   1.384       .  A
C3            H6   1.082       .  S
C4            C5   1.383       .  A
C4          C849   1.475       .  S
C5            H7   1.082       .  S
Cu8          N11   2.070       .  S
Cu9          N19   2.066       .  S
Cu10         N12   2.065       .  S
Cu10         N18   2.065       .  S
N11          N12   1.320       .  A
N11          C15   1.343       .  A
N12          C13   1.343       .  A
C13          C14   1.388       .  A
C13          H16   1.080       .  S
C14          C15   1.389       .  A
C14         C829   1.486       .  S
C15          H17   1.081       .  S
N18          N19   1.321       .  A
N18          C22   1.342       .  A
N19          C20   1.345       .  A
C20          C21   1.383       .  A
C20          H23   1.082       .  S
C21          C22   1.382       .  A
C21         C809   1.472       .  S
C22          H24   1.082       .  S
N25          N26   1.321       .  A
N25          C29   1.344       .  A
N25         Cu33   2.067       .  S
N26          C27   1.341       .  A
N26         Cu32   2.065       .  S
C27          C28   1.385       .  A
C27          H30   1.082       .  S
C28          C29   1.386       .  A
C28         C858   1.480       .  S
C29          H31   1.081       .  S
Cu32         N35   2.065       .  S
Cu33         N43   2.067       .  S
Cu34         N36   2.067       .  S
Cu34         N42   2.067       .  S
N35          N36   1.320       .  A
N35          C39   1.344       .  A
N36          C37   1.343       .  A
C37          C38   1.386       .  A
C37          H40   1.082       .  S
C38          C39   1.386       .  A
C38         C798   1.480       .  S
C39          H41   1.081       .  S
N42          N43   1.322       .  A
N42          C46   1.342       .  A
N43          C44   1.344       .  A
C44          C45   1.383       .  A
C44          H47   1.082       .  S
C45          C46   1.383       .  A
C45         C769   1.474       .  S
C46          H48   1.082       .  S
N49          N50   1.320       .  A
N49          C53   1.345       .  A
N49         Cu57   2.072       .  S
N50          C51   1.340       .  A
N50         Cu56   2.058       .  S
C51          C52   1.385       .  A
C51          H54   1.081       .  S
C52          C53   1.389       .  A
C52         C749   1.483       .  S
C53          H55   1.081       .  S
Cu56         N59   2.058       .  S
Cu57         N67   2.072       .  S
Cu58         N60   2.069       .  S
Cu58         N66   2.070       .  S
N59          N60   1.320       .  A
N59          C63   1.342       .  A
N60          C61   1.344       .  A
C61          C62   1.387       .  A
C61          H64   1.082       .  S
C62          C63   1.384       .  A
C62         C789   1.479       .  S
C63          H65   1.081       .  S
N66          N67   1.322       .  A
N66          C70   1.344       .  A
N67          C68   1.343       .  A
C68          C69   1.385       .  A
C68          H71   1.082       .  S
C69          C70   1.384       .  A
C69         C729   1.477       .  S
C70          H72   1.081       .  S
N73          N74   1.321       .  A
N73          C77   1.343       .  A
N73         Cu81   2.071       .  S
N74          C75   1.343       .  A
N74         Cu80   2.068       .  S
C75          C76   1.387       .  A
C75          H78   1.081       .  S
C76          C77   1.388       .  A
C76         C758   1.485       .  S
C77          H79   1.080       .  S
Cu80         N83   2.068       .  S
Cu81         N91   2.071       .  S
Cu82         N84   2.068       .  S
Cu82         N90   2.069       .  S
N83          N84   1.320       .  A
N83          C87   1.343       .  A
N84          C85   1.343       .  A
C85          C86   1.387       .  A
C85          H88   1.081       .  S
C86          C87   1.387       .  A
C86         C838   1.483       .  S
C87          H89   1.082       .  S
N90          N91   1.321       .  A
N90          C94   1.343       .  A
N91          C92   1.345       .  A
C92          C93   1.387       .  A
C92          H95   1.082       .  S
C93          C94   1.387       .  A
C93         C718   1.484       .  S
C94          H96   1.081       .  S
N97          N98   1.322       .  A
N97         C101   1.346       .  A
N97        Cu105   2.076       .  S
N98          C99   1.343       .  A
N98        Cu104   2.074       .  S
C99         C100   1.385       .  A
C99         H102   1.082       .  S
C100        C101   1.387       .  A
C100        C689   1.482       .  S
C101        H103   1.081       .  S
Cu104       N107   2.074       .  S
Cu105       N115   2.075       .  S
Cu106       N108   2.058       .  S
Cu106       N114   2.058       .  S
N107        N108   1.319       .  A
N107        C111   1.344       .  A
N108        C109   1.342       .  A
C109        C110   1.386       .  A
C109        H112   1.081       .  S
C110        C111   1.389       .  A
C110        C669   1.484       .  S
C111        H113   1.081       .  S
N114        N115   1.321       .  A
N114        C118   1.342       .  A
N115        C116   1.345       .  A
C116        C117   1.387       .  A
C116        H119   1.081       .  S
C117        C118   1.383       .  A
C117        C738   1.479       .  S
C118        H120   1.082       .  S
N121        N122   1.323       .  A
N121        C125   1.345       .  A
N121       Cu129   2.075       .  S
N122        C123   1.345       .  A
N122       Cu128   2.079       .  S
C123        C124   1.386       .  A
C123        H126   1.082       .  S
C124        C125   1.386       .  A
C124        C698   1.483       .  S
C125        H127   1.081       .  S
Cu128       N131   2.078       .  S
Cu129       N139   2.074       .  S
Cu130       N132   2.058       .  S
Cu130       N138   2.058       .  S
N131        N132   1.320       .  A
N131        C135   1.345       .  A
N132        C133   1.342       .  A
C133        C134   1.385       .  A
C133        H136   1.081       .  S
C134        C135   1.389       .  A
C134        C649   1.484       .  S
C135        H137   1.081       .  S
N138        N139   1.321       .  A
N138        C142   1.341       .  A
N139        C140   1.346   1_655  A
C140        C141   1.385       .  A
C140        H143   1.082       .  S
C141        C142   1.380   1_455  A
C141        C629   1.472       .  S
C142        H144   1.082       .  S
N145        N146   1.321       .  A
N145        C149   1.344       .  A
N145       Cu153   2.066       .  S
N146        C147   1.343       .  A
N146       Cu152   2.064       .  S
C147        C148   1.383       .  A
C147        H150   1.082       .  S
C148        C149   1.383       .  A
C148        C609   1.474       .  S
C149        H151   1.081       .  S
Cu152       N155   2.064       .  S
Cu153       N163   2.066       .  S
Cu154       N156   2.069       .  S
Cu154       N162   2.070       .  S
N155        N156   1.321       .  A
N155        C159   1.342       .  A
N156        C157   1.345       .  A
C157        C158   1.386       .  A
C157        H160   1.081       .  S
C158        C159   1.384       .  A
C158        C678   1.479       .  S
C159        H161   1.082       .  S
N162        N163   1.321       .  A
N162        C166   1.343       .  A
N163        C164   1.343       .  A
C164        C165   1.385       .  A
C164        H167   1.081       .  S
C165        C166   1.385       .  A
C165        C598   1.479       .  S
C166        H168   1.082       .  S
N169        N170   1.321       .  A
N169        C173   1.345       .  A
N169       Cu177   2.064       .  S
N170        C171   1.341       .  A
N170       Cu176   2.065       .  S
C171        C172   1.384       .  A
C171        H174   1.082       .  S
C172        C173   1.385       .  A
C172        C618   1.476       .  S
C173        H175   1.082       .  S
Cu176       N179   2.065       .  S
Cu177       N187   2.065       .  S
Cu178       N180   2.075       .  S
Cu178       N186   2.075       .  S
N179        N180   1.321       .  A
N179        C183   1.344       .  A
N180        C181   1.344   1_554  A
C181        C182   1.388   1_556  A
C181        H184   1.081       .  S
C182        C183   1.386       .  A
C182        C658   1.484   1_554  S
C183        H185   1.082       .  S
N186        N187   1.322       .  A
N186        C190   1.346   1_554  A
N187        C188   1.342       .  A
C188        C189   1.382       .  A
C188        H191   1.082       .  S
C189        C190   1.384   1_554  A
C189        C818   1.474   1_554  S
C190        H192   1.082       .  S
N193        N194   1.321       .  A
N193        C197   1.347       .  A
N193       Cu201   2.077       .  S
N194        C195   1.340       .  A
N194       Cu200   2.056       .  S
C195        C196   1.380       .  A
C195        H198   1.082       .  S
C196        C197   1.387       .  A
C196        C569   1.475       .  S
C197        H199   1.082       .  S
Cu200       N203   2.056       .  S
Cu201       N211   2.078       .  S
Cu202       N204   2.079       .  S
Cu202       N210   2.079       .  S
N203        N204   1.320       .  A
N203        C207   1.343       .  A
N204        C205   1.345       .  A
C205        C206   1.389       .  A
C205        H208   1.081       .  S
C206        C207   1.384       .  A
C206        C558   1.482       .  S
C207        H209   1.081       .  S
N210        N211   1.322       .  A
N210        C214   1.345       .  A
N211        C212   1.344       .  A
C212        C213   1.388       .  A
C212        H215   1.081       .  S
C213        C214   1.388       .  A
C213        C529   1.488       .  S
C214        H216   1.081       .  S
N217        N218   1.321       .  A
N217        C221   1.345       .  A
N217       Cu225   2.070       .  S
N218        C219   1.342       .  A
N218       Cu224   2.064       .  S
C219        C220   1.383       .  A
C219        H222   1.082       .  S
C220        C221   1.384       .  A
C220        C578   1.475       .  S
C221        H223   1.082       .  S
Cu224       N227   2.064       .  S
Cu225       N235   2.070       .  S
Cu226       N228   2.067       .  S
Cu226       N234   2.067       .  S
N227        N228   1.320       .  A
N227        C231   1.343       .  A
N228        C229   1.344       .  A
C229        C230   1.385       .  A
C229        H232   1.082       .  S
C230        C231   1.384       .  A
C230        C509   1.478       .  S
C231        H233   1.082       .  S
N234        N235   1.322       .  A
N234        C238   1.343       .  A
N235        C236   1.344       .  A
C236        C237   1.384       .  A
C236        H239   1.082       .  S
C237        C238   1.382       .  A
C237        C638   1.474       .  S
C238        H240   1.082       .  S
N241        N242   1.322       .  A
N241        C245   1.347       .  A
N241       Cu249   2.079       .  S
N242        C243   1.343       .  A
N242       Cu248   2.068       .  S
C243        C244   1.384       .  A
C243        H246   1.082       .  S
C244        C245   1.387       .  A
C244        C489   1.480       .  S
C245        H247   1.082       .  S
Cu248       N251   2.068       .  S
Cu249       N259   2.079       .  S
Cu250       N252   2.071       .  S
Cu250       N258   2.072       .  S
N251        N252   1.320       .  A
N251        C255   1.342       .  A
N252        C253   1.345       .  A
C253        C254   1.389       .  A
C253        H256   1.081       .  S
C254        C255   1.387       .  A
C254        C518   1.485       .  S
C255        H257   1.081       .  S
N258        N259   1.322       .  A
N258        C262   1.343       .  A
N259        C260   1.346       .  A
C260        C261   1.389       .  A
C260        H263   1.081       .  S
C261        C262   1.387       .  A
C261        C469   1.487       .  S
C262        H264   1.081       .  S
N265        N266   1.321       .  A
N265        C269   1.346       .  A
N265       Cu273   2.073       .  S
N266        C267   1.343       .  A
N266       Cu272   2.070       .  S
C267        C268   1.384       .  A
C267        H270   1.082       .  S
C268        C269   1.386       .  A
C268        C498   1.479       .  S
C269        H271   1.082       .  S
Cu272       N275   2.069       .  S
Cu273       N283   2.073       .  S
Cu274       N276   2.071       .  S
Cu274       N282   2.071       .  S
N275        N276   1.320       .  A
N275        C279   1.343       .  A
N276        C277   1.345       .  A
C277        C278   1.389       .  A
C277        H280   1.081       .  S
C278        C279   1.388       .  A
C278        C549   1.488       .  S
C279        H281   1.080       .  S
N282        N283   1.322       .  A
N282        C286   1.343       .  A
N283        C284   1.345       .  A
C284        C285   1.385       .  A
C284        H287   1.082       .  S
C285        C286   1.386       .  A
C285        C589   1.481       .  S
C286        H288   1.081       .  S
N289        N290   1.323       .  A
N289        C293   1.348       .  A
N289       Cu297   2.082       .  S
N290        C291   1.342       .  A
N290       Cu296   2.071       .  S
C291        C292   1.382       .  A
C291        H294   1.082       .  S
C292        C293   1.386       .  A
C292        C458   1.478       .  S
C293        H295   1.082       .  S
Cu296       N299   2.070       .  S
Cu297       N307   2.082       .  S
Cu298       N300   2.063       .  S
Cu298       N306   2.063       .  S
N299        N300   1.320       .  A
N299        C303   1.345       .  A
N300        C301   1.343       .  A
C301        C302   1.385       .  A
C301        H304   1.082       .  S
C302        C303   1.387       .  A
C302        C438   1.480       .  S
C303        H305   1.081       .  S
N306        N307   1.322       .  A
N306        C310   1.341       .  A
N307        C308   1.347       .  A
C308        C309   1.389       .  A
C308        H311   1.081       .  S
C309        C310   1.383       .  A
C309        C709   1.483       .  S
C310        H312   1.082       .  S
N313        N314   1.323       .  A
N313        C317   1.348       .  A
N313       Cu321   2.078       .  S
N314        C315   1.342       .  A
N314       Cu320   2.070       .  S
C315        C316   1.382       .  A
C315        H318   1.082       .  S
C316        C317   1.385       .  A
C316        C449   1.477       .  S
C317        H319   1.082       .  S
Cu320       N323   2.069       .  S
Cu321       N331   2.078       .  S
Cu322       N324   2.071       .  S
Cu322       N330   2.072       .  S
N323        N324   1.320       .  A
N323        C327   1.345       .  A
N324        C325   1.343       .  A
C325        C326   1.387       .  A
C325        H328   1.082       .  S
C326        C327   1.387       .  A
C326        C409   1.483       .  S
C327        H329   1.081       .  S
N330        N331   1.321       .  A
N330        C334   1.343       .  A
N331        C332   1.346       .  A
C332        C333   1.390       .  A
C332        H335   1.080       .  S
C333        C334   1.388       .  A
C333        C538   1.490       .  S
C334        H336   1.081       .  S
N337        N338   1.322       .  A
N337        C341   1.346       .  A
N337       Cu345   2.079       .  S
N338        C339   1.344       .  A
N338       Cu344   2.074       .  S
C339        C340   1.386       .  A
C339        H342   1.082       .  S
C340        C341   1.388       .  A
C340        C389   1.485       .  S
C341        H343   1.081       .  S
Cu344       N347   2.074       .  S
Cu345       N355   2.079       .  S
Cu346       N348   2.070       .  S
Cu346       N354   2.070   1_556  S
N347        N348   1.321   1_554  A
N347        C351   1.344       .  A
N348        C349   1.345       .  A
C349        C350   1.386       .  A
C349        H352   1.082       .  S
C350        C351   1.387   1_556  A
C350        C429   1.483       .  S
C351        H353   1.081       .  S
N354        N355   1.322       .  A
N354        C358   1.344   1_554  A
N355        C356   1.346       .  A
C356        C357   1.388       .  A
C356        H359   1.082       .  S
C357        C358   1.385   1_554  A
C357        C478   1.483   1_554  S
C358        H360   1.081       .  S
N361        N362   1.322       .  A
N361        C365   1.346       .  A
N361       Cu369   2.079       .  S
N362        C363   1.344       .  A
N362       Cu368   2.074       .  S
C363        C364   1.385       .  A
C363        H366   1.081       .  S
C364        C365   1.387       .  A
C364        C398   1.483       .  S
C365        H367   1.082       .  S
Cu368       N371   2.073       .  S
Cu369       N379   2.078       .  S
Cu370       N372   2.062       .  S
Cu370       N378   2.062       .  S
N371        N372   1.319       .  A
N371        C375   1.344       .  A
N372        C373   1.342       .  A
C373        C374   1.388       .  A
C373        H376   1.081       .  S
C374        C375   1.391       .  A
C374        C418   1.490       .  S
C375        H377   1.080       .  S
N378        N379   1.322       .  A
N378        C382   1.343       .  A
N379        C380   1.345       .  A
C380        C381   1.385       .  A
C380        H383   1.082       .  S
C381        C382   1.381       .  A
C381        C778   1.473       .  S
C382        H384   1.082       .  S
C385        C386   1.405       .  A
C385        C390   1.400       .  A
C385        H395   1.083       .  S
C386        C387   1.407       .  A
C386        C391   1.487       .  S
C387        C388   1.397       .  A
C387        F392   1.358       .  S
C388        C389   1.405       .  A
C388        H393   1.083       .  S
C389        C390   1.409       .  A
C390        F394   1.357       .  S
C391        C396   1.408       .  A
C391        C400   1.405       .  A
C396        C397   1.400       .  A
C396        F401   1.357       .  S
C397        C398   1.405       .  A
C397        H402   1.083       .  S
C398        C399   1.408       .  A
C399        C400   1.398       .  A
C399        F403   1.357       .  S
C400        H404   1.083       .  S
C405        C406   1.405       .  A
C405        C410   1.400       .  A
C405        H415   1.083       .  S
C406        C407   1.405       .  A
C406        C411   1.482       .  S
C407        C408   1.395       .  A
C407        F412   1.358       .  S
C408        C409   1.405       .  A
C408        H413   1.082       .  S
C409        C410   1.409       .  A
C410        F414   1.357       .  S
C411        C416   1.404       .  A
C411        C420   1.403       .  A
C416        C417   1.398       .  A
C416        F421   1.358       .  S
C417        C418   1.409       .  A
C417        H422   1.081       .  S
C418        C419   1.411       .  A
C419        C420   1.397       .  A
C419        F423   1.355       .  S
C420        H424   1.083       .  S
C425        C426   1.404       .  A
C425        C430   1.397       .  A
C425        H435   1.083       .  S
C426        C427   1.406       .  A
C426        C431   1.483       .  S
C427        C428   1.399       .  A
C427        F432   1.358       .  S
C428        C429   1.406       .  A
C428        H433   1.083       .  S
C429        C430   1.409       .  A
C430        F434   1.356   1_556  S
C431        C436   1.407       .  A
C431        C440   1.405       .  A
C436        C437   1.397       .  A
C436        F441   1.358       .  S
C437        C438   1.405       .  A
C437        H442   1.083       .  S
C438        C439   1.407       .  A
C439        C440   1.399       .  A
C439        F443   1.357       .  S
C440        H444   1.083       .  S
C445        C446   1.404       .  A
C445        C450   1.393       .  A
C445        H455   1.083       .  S
C446        C447   1.408       .  A
C446        C451   1.484       .  S
C447        C448   1.402       .  A
C447        F452   1.357       .  S
C448        C449   1.405       .  A
C448        H453   1.083       .  S
C449        C450   1.405       .  A
C450        F454   1.357       .  S
C451        C456   1.407       .  A
C451        C460   1.406       .  A
C456        C457   1.394       .  A
C456        F461   1.358       .  S
C457        C458   1.402       .  A
C457        H462   1.083       .  S
C458        C459   1.407       .  A
C459        C460   1.402       .  A
C459        F463   1.357       .  S
C460        H464   1.083       .  S
C465        C466   1.404   1_565  A
C465        C470   1.400       .  A
C465        H475   1.083   1_565  S
C466        C467   1.405   1_545  A
C466        C471   1.484       .  S
C467        C468   1.397       .  A
C467        F472   1.358   1_556  S
C468        C469   1.407       .  A
C468        H473   1.082       .  S
C469        C470   1.410       .  A
C470        F474   1.356       .  S
C471        C476   1.406   1_556  A
C471        C480   1.404       .  A
C476        C477   1.399       .  A
C476        F481   1.357       .  S
C477        C478   1.406   1_554  A
C477        H482   1.082       .  S
C478        C479   1.409       .  A
C479        C480   1.398       .  A
C479        F483   1.357       .  S
C480        H484   1.083       .  S
C485        C486   1.405       .  A
C485        C490   1.401       .  A
C485        H495   1.083       .  S
C486        C487   1.407       .  A
C486        C491   1.484       .  S
C487        C488   1.396       .  A
C487        F492   1.358       .  S
C488        C489   1.404       .  A
C488        H493   1.083       .  S
C489        C490   1.407       .  A
C490        F494   1.357       .  S
C491        C496   1.407       .  A
C491        C500   1.404       .  A
C496        C497   1.400       .  A
C496        F501   1.357       .  S
C497        C498   1.405       .  A
C497        H502   1.083       .  S
C498        C499   1.406       .  A
C499        C500   1.396       .  A
C499        F503   1.357       .  S
C500        H504   1.083       .  S
C505        C506   1.404       .  A
C505        C510   1.397       .  A
C505        H515   1.083   1_554  S
C506        C507   1.406       .  A
C506        C511   1.480       .  S
C507        C508   1.397       .  A
C507        F512   1.357       .  S
C508        C509   1.405       .  A
C508        H513   1.083       .  S
C509        C510   1.407       .  A
C510        F514   1.357       .  S
C511        C516   1.404   1_554  A
C511        C520   1.404       .  A
C516        C517   1.395       .  A
C516        F521   1.358       .  S
C517        C518   1.406       .  A
C517        H522   1.082       .  S
C518        C519   1.410   1_556  A
C519        C520   1.400       .  A
C519        F523   1.356       .  S
C520        H524   1.083       .  S
C525        C526   1.402       .  A
C525        C530   1.400       .  A
C525        H535   1.083       .  S
C526        C527   1.403       .  A
C526        C531   1.479       .  S
C527        C528   1.397       .  A
C527        F532   1.358       .  S
C528        C529   1.408       .  A
C528        H533   1.082       .  S
C529        C530   1.411       .  A
C530        F534   1.356       .  S
C531        C536   1.403       .  A
C531        C540   1.402       .  A
C536        C537   1.396       .  A
C536        F541   1.358       .  S
C537        C538   1.408       .  A
C537        H542   1.081       .  S
C538        C539   1.412       .  A
C539        C540   1.401       .  A
C539        F543   1.356       .  S
C540        H544   1.083       .  S
C545        C546   1.402       .  A
C545        C550   1.396       .  A
C545        H555   1.083       .  S
C546        C547   1.405       .  A
C546        C551   1.481       .  S
C547        C548   1.399       .  A
C547        F552   1.358       .  S
C548        C549   1.408       .  A
C548        H553   1.082       .  S
C549        C550   1.411       .  A
C550        F554   1.356       .  S
C551        C556   1.405       .  A
C551        C560   1.403       .  A
C556        C557   1.395       .  A
C556        F561   1.357       .  S
C557        C558   1.404       .  A
C557        H562   1.082       .  S
C558        C559   1.410       .  A
C559        C560   1.400       .  A
C559        F563   1.357       .  S
C560        H564   1.083       .  S
C565        C566   1.406       .  A
C565        C570   1.399       .  A
C565        H575   1.083       .  S
C566        C567   1.407       .  A
C566        C571   1.482       .  S
C567        C568   1.394       .  A
C567        F572   1.358       .  S
C568        C569   1.403       .  A
C568        H573   1.083       .  S
C569        C570   1.405       .  A
C570        F574   1.357       .  S
C571        C576   1.407       .  A
C571        C580   1.405       .  A
C576        C577   1.398       .  A
C576        F581   1.357       .  S
C577        C578   1.404       .  A
C577        H582   1.083       .  S
C578        C579   1.406       .  A
C579        C580   1.395       .  A
C579        F583   1.357       .  S
C580        H584   1.083       .  S
C585        C586   1.401       .  A
C585        C590   1.395       .  A
C585        H595   1.084       .  S
C586        C587   1.404       .  A
C586        C591   1.476       .  S
C587        C588   1.399       .  A
C587        F592   1.357       .  S
C588        C589   1.407       .  A
C588        H593   1.083       .  S
C589        C590   1.409       .  A
C590        F594   1.356       .  S
C591        C596   1.404       .  A
C591        C600   1.402       .  A
C596        C597   1.398       .  A
C596        F601   1.357       .  S
C597        C598   1.406       .  A
C597        H602   1.083       .  S
C598        C599   1.408       .  A
C599        C600   1.396       .  A
C599        F603   1.357       .  S
C600        H604   1.084       .  S
C605        C606   1.404       .  A
C605        C610   1.394       .  A
C605        H615   1.084       .  S
C606        C607   1.406       .  A
C606        C611   1.479       .  S
C607        C608   1.398       .  A
C607        F612   1.357       .  S
C608        C609   1.405       .  A
C608        H613   1.083       .  S
C609        C610   1.405       .  A
C610        F614   1.357       .  S
C611        C616   1.405       .  A
C611        C620   1.405       .  A
C616        C617   1.393       .  A
C616        F621   1.358       .  S
C617        C618   1.403       .  A
C617        H622   1.083       .  S
C618        C619   1.407       .  A
C619        C620   1.399       .  A
C619        F623   1.357       .  S
C620        H624   1.083       .  S
C625        C626   1.406       .  A
C625        C630   1.398       .  A
C625        H635   1.083       .  S
C626        C627   1.406       .  A
C626        C631   1.480       .  S
C627        C628   1.395       .  A
C627        F632   1.358       .  S
C628        C629   1.402       .  A
C628        H633   1.083       .  S
C629        C630   1.404       .  A
C630        F634   1.357       .  S
C631        C636   1.406       .  A
C631        C640   1.405   1_556  A
C636        C637   1.397       .  A
C636        F641   1.357       .  S
C637        C638   1.404   1_556  A
C637        H642   1.083       .  S
C638        C639   1.405       .  A
C639        C640   1.396       .  A
C639        F643   1.357       .  S
C640        H644   1.083       .  S
C645        C646   1.403       .  A
C645        C650   1.398       .  A
C645        H655   1.083       .  S
C646        C647   1.405       .  A
C646        C651   1.481       .  S
C647        C648   1.397       .  A
C647        F652   1.357       .  S
C648        C649   1.406       .  A
C648        H653   1.082       .  S
C649        C650   1.410       .  A
C650        F654   1.357       .  S
C651        C656   1.405       .  A
C651        C660   1.403       .  A
C656        C657   1.399   1_556  A
C656        F661   1.358       .  S
C657        C658   1.407   1_554  A
C657        H662   1.082       .  S
C658        C659   1.409       .  A
C659        C660   1.396       .  A
C659        F663   1.356       .  S
C660        H664   1.083       .  S
C665        C666   1.403       .  A
C665        C670   1.396       .  A
C665        H675   1.083       .  S
C666        C667   1.405       .  A
C666        C671   1.481       .  S
C667        C668   1.397       .  A
C667        F672   1.357       .  S
C668        C669   1.407       .  A
C668        H673   1.082       .  S
C669        C670   1.410       .  A
C670        F674   1.356       .  S
C671        C676   1.406       .  A
C671        C680   1.404       .  A
C676        C677   1.395       .  A
C676        F681   1.358       .  S
C677        C678   1.404       .  A
C677        H682   1.083       .  S
C678        C679   1.408       .  A
C679        C680   1.398       .  A
C679        F683   1.357       .  S
C680        H684   1.083       .  S
C685        C686   1.404       .  A
C685        C690   1.400       .  A
C685        H695   1.083       .  S
C686        C687   1.406       .  A
C686        C691   1.483       .  S
C687        C688   1.397       .  A
C687        F692   1.357       .  S
C688        C689   1.405       .  A
C688        H693   1.083       .  S
C689        C690   1.409       .  A
C690        F694   1.357       .  S
C691        C696   1.406       .  A
C691        C700   1.404       .  A
C696        C697   1.398       .  A
C696        F701   1.358       .  S
C697        C698   1.405       .  A
C697        H702   1.083       .  S
C698        C699   1.409       .  A
C699        C700   1.399       .  A
C699        F703   1.357       .  S
C700        H704   1.083       .  S
C705        C706   1.404       .  A
C705        C710   1.400       .  A
C705        H715   1.083       .  S
C706        C707   1.405       .  A
C706        C711   1.481       .  S
C707        C708   1.395       .  A
C707        F712   1.358       .  S
C708        C709   1.406       .  A
C708        H713   1.082       .  S
C709        C710   1.408       .  A
C710        F714   1.357       .  S
C711        C716   1.406   1_556  A
C711        C720   1.402   1_455  A
C716        C717   1.398       .  A
C716        F721   1.358       .  S
C717        C718   1.406   1_455  A
C717        H722   1.082       .  S
C718        C719   1.410   1_554  A
C719        C720   1.397       .  A
C719        F723   1.356       .  S
C720        H724   1.083       .  S
C725        C726   1.402       .  A
C725        C730   1.398       .  A
C725        H735   1.083       .  S
C726        C727   1.403       .  A
C726        C731   1.474       .  S
C727        C728   1.395       .  A
C727        F732   1.358       .  S
C728        C729   1.405       .  A
C728        H733   1.083       .  S
C729        C730   1.408       .  A
C730        F734   1.357       .  S
C731        C736   1.403       .  A
C731        C740   1.402       .  A
C736        C737   1.395       .  A
C736        F741   1.358       .  S
C737        C738   1.406       .  A
C737        H742   1.082       .  S
C738        C739   1.408       .  A
C739        C740   1.398       .  A
C739        F743   1.357       .  S
C740        H744   1.083       .  S
C745        C746   1.403       .  A
C745        C750   1.398       .  A
C745        H755   1.083       .  S
C746        C747   1.404       .  A
C746        C751   1.479       .  S
C747        C748   1.394       .  A
C747        F752   1.358       .  S
C748        C749   1.406       .  A
C748        H753   1.082       .  S
C749        C750   1.410       .  A
C750        F754   1.356       .  S
C751        C756   1.405       .  A
C751        C760   1.401       .  A
C756        C757   1.396       .  A
C756        F761   1.358       .  S
C757        C758   1.407       .  A
C757        H762   1.082       .  S
C758        C759   1.411       .  A
C759        C760   1.397       .  A
C759        F763   1.356       .  S
C760        H764   1.083       .  S
C765        C766   1.405       .  A
C765        C770   1.395       .  A
C765        H775   1.083       .  S
C766        C767   1.408       .  A
C766        C771   1.483       .  S
C767        C768   1.398       .  A
C767        F772   1.357       .  S
C768        C769   1.404       .  A
C768        H773   1.083       .  S
C769        C770   1.404       .  A
C770        F774   1.357       .  S
C771        C776   1.408       .  A
C771        C780   1.405       .  A
C776        C777   1.395       .  A
C776        F781   1.358       .  S
C777        C778   1.401       .  A
C777        H782   1.083       .  S
C778        C779   1.406       .  A
C779        C780   1.398       .  A
C779        F783   1.357       .  S
C780        H784   1.083       .  S
C785        C786   1.401       .  A
C785        C790   1.397       .  A
C785        H795   1.083       .  S
C786        C787   1.404       .  A
C786        C791   1.475       .  S
C787        C788   1.396       .  A
C787        F792   1.358       .  S
C788        C789   1.405       .  A
C788        H793   1.082       .  S
C789        C790   1.409       .  A
C790        F794   1.357       .  S
C791        C796   1.403       .  A
C791        C800   1.402       .  A
C796        C797   1.396       .  A
C796        F801   1.358       .  S
C797        C798   1.406       .  A
C797        H802   1.083       .  S
C798        C799   1.409       .  A
C799        C800   1.396       .  A
C799        F803   1.356       .  S
C800        H804   1.083       .  S
C805        C806   1.407       .  A
C805        C810   1.399       .  A
C805        H815   1.083       .  S
C806        C807   1.409       .  A
C806        C811   1.485       .  S
C807        C808   1.394       .  A
C807        F812   1.358   1_556  S
C808        C809   1.401   1_565  A
C808        H813   1.083   1_565  S
C809        C810   1.405   1_545  A
C810        F814   1.357       .  S
C811        C816   1.409       .  A
C811        C820   1.405   1_556  A
C816        C817   1.400       .  A
C816        F821   1.357       .  S
C817        C818   1.403       .  A
C817        H822   1.083       .  S
C818        C819   1.405   1_556  A
C819        C820   1.394       .  A
C819        F823   1.357       .  S
C820        H824   1.083       .  S
C825        C826   1.401       .  A
C825        C830   1.398       .  A
C825        H835   1.083       .  S
C826        C827   1.403   1_554  A
C826        C831   1.476       .  S
C827        C828   1.395       .  A
C827        F832   1.358       .  S
C828        C829   1.407       .  A
C828        H833   1.082       .  S
C829        C830   1.413   1_556  A
C830        F834   1.356       .  S
C831        C836   1.403       .  A
C831        C840   1.402       .  A
C836        C837   1.397       .  A
C836        F841   1.358       .  S
C837        C838   1.407       .  A
C837        H842   1.082       .  S
C838        C839   1.410       .  A
C839        C840   1.396       .  A
C839        F843   1.356   1_554  S
C840        H844   1.083   1_554  S
C845        C846   1.402       .  A
C845        C850   1.393       .  A
C845        H855   1.084       .  S
C846        C847   1.405       .  A
C846        C851   1.475       .  S
C847        C848   1.400       .  A
C847        F852   1.357       .  S
C848        C849   1.405       .  A
C848        H853   1.083       .  S
C849        C850   1.407       .  A
C850        F854   1.357       .  S
C851        C856   1.404       .  A
C851        C860   1.402       .  A
C856        C857   1.393       .  A
C856        F861   1.358       .  S
C857        C858   1.405       .  A
C857        H862   1.082       .  S
C858        C859   1.410       .  A
C859        C860   1.399       .  A
C859        F863   1.356       .  S
C860        H864   1.083       .  S
