geometry optimzed in LAMMPS
_audit_creation_date              2020-11-30 
_audit_creation_method            'lammps2cif' 
_symmetry_space_group_name_H-M    'P1' 
_symmetry_Int_Tables_number       1 
_symmetry_cell_setting            triclinic 
loop_ 
_symmetry_equiv_pos_as_xyz 
  x,y,z 
_cell_length_a                    43.3169913 
_cell_length_b                    55.873483009798385 
_cell_length_c                    34.37486664232065 
_cell_angle_alpha                 89.8910258694204 
_cell_angle_beta                  89.87048287352363 
_cell_angle_gamma                 90.12080302213802 
loop_ 
_atom_site_label 
_atom_site_type_symbol 
_atom_site_fract_x 
_atom_site_fract_y 
_atom_site_fract_z 
_atom_site_charge 
O1          O  0.43371628  0.46420268  0.06705204    -0.74900
O2          O  0.46422064  0.43535135  0.04014532    -0.53800
C3          C  0.44066533  0.44229516  0.05991098     0.78900
O4          O  0.44596228  0.04329003  0.41968803    -0.59500
O5          O  0.47084253  0.07087745  0.45693138    -0.52500
C6          C  0.45150970  0.06499954  0.43024103     0.70900
O7          O  0.44227388  0.46223429  0.42111513    -0.74000
O8          O  0.46847517  0.43395496  0.45548156    -0.54600
C9          C  0.44847199  0.44039526  0.42994542     0.76900
O10         O  0.43592063  0.04444951  0.06540433    -0.59200
O11         O  0.46727313  0.07187739  0.03581250    -0.52300
C12         C  0.44371382  0.06604913  0.05675459     0.73500
Zr13       Zr  0.45574652  0.50364955  0.05616229     2.54700
O14         O  0.40062442  0.50366735  0.06901922    -0.79700
O15         O  0.46075403  0.00262061  0.12405966    -0.93200
Zr16       Zr  0.45930138  0.50226991  0.43859078     2.64700
O17         O  0.40344796  0.50148635  0.43060957    -0.98100
O18         O  0.47086211  0.00472218  0.36866523    -0.80200
O19         O  0.45743588  0.48033689  0.99849528    -0.83500
O20         O  0.45639011  0.02631646  0.99516162    -2.18200
O21         O  0.05915192  0.04386506  0.08013089    -0.66900
O22         O  0.03405778  0.07148503  0.04310061    -0.51500
C23         C  0.05364635  0.06559286  0.06944699     0.71900
O24         O  0.06743216  0.46082250  0.43265468    -0.59800
O25         O  0.03702205  0.43314493  0.46292572    -0.51800
C26         C  0.05986467  0.43910170  0.44093542     0.73700
O27         O  0.07312341  0.04010812  0.43508307    -0.71200
O28         O  0.04240695  0.06886678  0.46203971    -0.49900
C29         C  0.06579105  0.06209359  0.44160853     0.75000
O30         O  0.06111570  0.46201814  0.07773048    -0.66500
O31         O  0.03343878  0.43376438  0.04519189    -0.53700
C32         C  0.05482205  0.44010381  0.06904993     0.73400
Zr33       Zr  0.04332440  0.00313253  0.06221643     2.77500
O34         O  0.09862102  0.00429013  0.07508865    -0.97300
O35         O  0.03006013  0.00041031  0.13095172    -0.78100
Zr36       Zr  0.05325877  0.00017764  0.45031683     2.70100
O37         O  0.10942896  0.00027445  0.44814861    -0.79400
O38         O  0.05022886  0.99697954  0.37978033    -0.98400
Zr39       Zr  0.00032479  0.45615127  0.50090062     2.21500
Zr40       Zr  0.50353489  0.04823971  0.99755840     2.11100
O41         O  0.04957034  0.02392137  0.50724879    -2.47100
O42         O  0.04673131  0.47893573  0.50428958    -0.79200
O43         O  0.50070297  0.02668600  0.05726551    -0.71400
O44         O  0.00360516  0.47828835  0.44146001    -2.32300
O45         O  0.99724108  0.47927134  0.06038966    -2.28500
O46         O  0.50739438  0.02553669  0.44356939    -0.73100
H47         H  0.43827719  0.03585931  0.49342472     0.78900
H48         H  0.00468832  0.46769923  0.41931783     0.80000
H49         H  0.06595143  0.03566477  0.00552079     0.82200
H50         H  0.99579354  0.46906074  0.08303397     0.79800
H51         H  0.48031843  0.48935389  0.36275975     0.42800
H52         H  0.06631405  0.00807573  0.36995833     0.41800
H53         H  0.11081676  0.50783120  0.47346287     0.41500
H54         H  0.10684257  0.01702565  0.05783497     0.39400
H55         H  0.03952374  0.01477013  0.14284300     0.42600
H56         H  0.44539178  0.49794821  0.13752008     0.37300
H57         H  0.39134132  0.50316171  0.04274875     0.43500
H58         H  0.39823895  0.01659246  0.44733127     0.39900
H59         H  0.10052728  0.01086097  0.10170708     0.44800
H60         H  0.46444941  0.52163417  0.13289527     0.43500
H61         H  0.40004695  0.50580739  0.40300295     0.43600
H62         H  0.05828854  0.98083537  0.37376633     0.44000
O63         O  0.32080366  0.29154249  0.31830193    -0.74900
O64         O  0.28912661  0.31998853  0.29238431    -0.53800
C65         C  0.31269955  0.31339218  0.31243552     0.78900
O66         O  0.31079837  0.21460525  0.16651594    -0.59500
O67         O  0.28589103  0.18538205  0.20046878    -0.52500
C68         C  0.30537486  0.19247327  0.17448913     0.70900
O69         O  0.31115597  0.29505284  0.17406587    -0.74000
O70         O  0.28490647  0.32226423  0.21042874    -0.54600
C71         C  0.30536021  0.31665691  0.18484680     0.76900
O72         O  0.32014491  0.21139120  0.31645147    -0.59200
O73         O  0.29129910  0.18344697  0.28467565    -0.52300
C74         C  0.31343860  0.18963545  0.30748529     0.73500
Zr75       Zr  0.30185705  0.25171696  0.30296903     2.54700
O76         O  0.35802795  0.25114245  0.30194313    -0.79700
O77         O  0.29956500  0.25107394  0.37375390    -0.93200
Zr78       Zr  0.29401700  0.25425554  0.18746336     2.64700
O79         O  0.34943556  0.25574344  0.17550077    -0.98100
O80         O  0.28278537  0.25608907  0.11816906    -0.80200
O81         O  0.29809718  0.27589644  0.24645292    -0.83500
O82         O  0.29939467  0.23012542  0.24380129    -2.18200
O83         O  0.19754878  0.20943332  0.33021360    -0.66900
O84         O  0.22285643  0.18258306  0.29200091    -0.51500
C85         C  0.20355167  0.18789303  0.31909632     0.71900
O86         O  0.18355855  0.29303289  0.18658516    -0.59800
O87         O  0.21466659  0.32115335  0.21457746    -0.51800
C88         C  0.19110807  0.31482878  0.19418272     0.73700
O89         O  0.18596912  0.21286726  0.18095041    -0.71200
O90         O  0.21639181  0.18436268  0.20875183    -0.49900
C91         C  0.19340198  0.19093582  0.18762505     0.75000
O92         O  0.19294275  0.29019918  0.33268321    -0.66500
O93         O  0.21763690  0.31919607  0.29755546    -0.53700
C94         C  0.19796371  0.31223880  0.32340252     0.73400
Zr95       Zr  0.21177847  0.25062466  0.31358945     2.77500
O96         O  0.15624946  0.24952963  0.32439629    -0.97300
O97         O  0.22326107  0.25080772  0.38290713    -0.78100
Zr98       Zr  0.20359793  0.25291398  0.19810970     2.70100
O99         O  0.14759655  0.25110337  0.20250198    -0.79400
O100        O  0.20347830  0.25504897  0.12737507    -0.98400
Zr101      Zr  0.25191329  0.29858700  0.25275879     2.21500
Zr102      Zr  0.25382908  0.20623843  0.24753561     2.11100
O103        O  0.20754790  0.22886946  0.25464344    -2.47100
O104        O  0.20661215  0.27467357  0.25706459    -0.79200
O105        O  0.25728579  0.22733742  0.30767858    -0.71400
O106        O  0.24831613  0.27725164  0.19286473    -2.32300
O107        O  0.25651943  0.27497328  0.31039966    -2.28500
O108        O  0.24913941  0.22993947  0.19016430    -0.73100
H109        H  0.31765368  0.22030057  0.24132839     0.78900
H110        H  0.24660052  0.28806790  0.17103052     0.80000
H111        H  0.18970990  0.21846682  0.25619058     0.82200
H112        H  0.25790909  0.28494030  0.33326075     0.79800
H113        H  0.29749923  0.26807186  0.10770071     0.42800
H114        H  0.20918905  0.23874160  0.11873946     0.41800
H115        H  0.14341436  0.24619222  0.22970285     0.41500
H116        H  0.14854999  0.23691410  0.30668148     0.39400
H117        H  0.20443299  0.24424833  0.39538837     0.42600
H118        H  0.32144951  0.25098256  0.38203888     0.37300
H119        H  0.36362626  0.25876596  0.27686626     0.43500
H120        H  0.35830250  0.24373916  0.19348453     0.39900
H121        H  0.15370012  0.24270948  0.35081274     0.44800
H122        H  0.29185241  0.23487992  0.38037586     0.43500
H123        H  0.35228022  0.24881419  0.14925853     0.43600
H124        H  0.18141547  0.25661795  0.12041488     0.44000
C125        C  0.10264727  0.09837914  0.14377023    -0.01600
C126        C  0.11017626  0.11970951  0.12397321     0.07000
C127        C  0.09814877  0.12372456  0.08678115    -0.07600
C128        C  0.07922380  0.10673421  0.06877696     0.04400
C129        C  0.07191085  0.08500704  0.08822258    -0.14800
C130        C  0.08379258  0.08124417  0.12583372    -0.08100
C131        C  0.13121961  0.13786235  0.14097699     0.05400
C132        C  0.16245255  0.13214870  0.14619329    -0.09200
C133        C  0.18337983  0.14909589  0.16065998     0.00400
C134        C  0.17290447  0.17224085  0.17088038     0.00200
C135        C  0.14152244  0.17783837  0.16537401    -0.12800
C136        C  0.12082819  0.16100745  0.15033035     0.00700
C137        C  0.21552755  0.14245211  0.16283318     0.40000
C138        C  0.08896671  0.16781391  0.14496894     0.36600
C139        C  0.11347888  0.09395923  0.18281453     0.36400
C140        C  0.06917726  0.11186401  0.02964177     0.37100
N141        N  0.24120418  0.13683966  0.16430716    -0.43700
N142        N  0.06345722  0.17323058  0.14039777    -0.44100
N143        N  0.05377209  0.11931538  0.50630736    -0.41500
N144        N  0.12203839  0.09050179  0.21418880    -0.42900
H145        H  0.07833524  0.06485706  0.14136971     0.13300
H146        H  0.10413240  0.14007786  0.07140819     0.09700
H147        H  0.17060837  0.11449426  0.13812461     0.10800
H148        H  0.13295695  0.19542531  0.17313754     0.16600
C149        C  0.15291165  0.15568273  0.39262968    -0.01600
C150        C  0.14870358  0.13305719  0.37547149     0.07000
C151        C  0.16358247  0.12795449  0.34019271    -0.07600
C152        C  0.18197751  0.14520132  0.32147601     0.04400
C153        C  0.18619841  0.16809209  0.33859038    -0.14800
C154        C  0.17170498  0.17277999  0.37447171    -0.08100
C155        C  0.12777458  0.11488939  0.39304965     0.05400
C156        C  0.09582679  0.11902015  0.39285696    -0.09200
C157        C  0.07519689  0.10233017  0.40896295     0.00400
C158        C  0.08648951  0.08075311  0.42502742     0.00200
C159        C  0.11855134  0.07674911  0.42530652    -0.12800
C160        C  0.13916524  0.09365799  0.40985574     0.00700
C161        C  0.04258812  0.10757151  0.40774337     0.40000
C162        C  0.17190722  0.08915472  0.41257762     0.36600
C163        C  0.13780136  0.16192868  0.42865708     0.36400
C164        C  0.19488246  0.13909123  0.28403455     0.37100
N165        N  0.01646549  0.11184796  0.40697530    -0.43700
N166        N  0.19812426  0.08551746  0.41503751    -0.44100
N167        N  0.20527149  0.13414809  0.25408045    -0.41500
N168        N  0.12555915  0.16709746  0.45737900    -0.42900
H169        H  0.17457899  0.19007657  0.38827097     0.13300
H170        H  0.16006617  0.11062916  0.32668818     0.09700
H171        H  0.08700129  0.13535581  0.37995388     0.10800
H172        H  0.12759377  0.06049342  0.43824064     0.16600
C173        C  0.10972611  0.41063246  0.14056331    -0.01600
C174        C  0.11360268  0.38762160  0.12467903     0.07000
C175        C  0.09743807  0.38144871  0.09085943    -0.07600
C176        C  0.07797674  0.39793754  0.07230069     0.04400
C177        C  0.07406433  0.42121195  0.08802425    -0.14800
C178        C  0.09017222  0.42709375  0.12230763    -0.08100
C179        C  0.13394930  0.36952186  0.14318179     0.05400
C180        C  0.12036833  0.34957865  0.16112048    -0.09200
C181        C  0.13853703  0.33188650  0.17856965     0.00400
C182        C  0.17110737  0.33386189  0.17790942     0.00200
C183        C  0.18469681  0.35400842  0.16025434    -0.12800
C184        C  0.16640975  0.37169831  0.14273229     0.00700
C185        C  0.12301573  0.31249413  0.19845301     0.40000
C186        C  0.18135686  0.39151861  0.12330799     0.36600
C187        C  0.12529563  0.41772651  0.17581887     0.36400
C188        C  0.06341456  0.39056015  0.03653007     0.37100
N189        N  0.11030702  0.29716551  0.21458862    -0.43700
N190        N  0.19316259  0.40743982  0.10760793    -0.44100
N191        N  0.05399658  0.38396487  0.51102247    -0.41500
N192        N  0.13777179  0.42359036  0.20397439    -0.42900
H193        H  0.08751742  0.44469276  0.13511466     0.13300
H194        H  0.10043816  0.36372765  0.07858122     0.09700
H195        H  0.09540959  0.34796346  0.16177815     0.10800
H196        H  0.20964464  0.35562409  0.15926967     0.16600
C197        C  0.41706043  0.12258084  0.10734565    -0.01600
C198        C  0.38467327  0.12079010  0.10374741     0.07000
C199        C  0.37197235  0.10156491  0.08312007    -0.07600
C200        C  0.39093399  0.08393771  0.06688278     0.04400
C201        C  0.42334311  0.08529105  0.07139692    -0.14800
C202        C  0.43612103  0.10489078  0.09116057    -0.08100
C203        C  0.36355344  0.13875546  0.12120611     0.05400
C204        C  0.36126929  0.16145922  0.10416822    -0.09200
C205        C  0.34167932  0.17894920  0.11980847     0.00400
C206        C  0.32402085  0.17390612  0.15377957     0.00200
C207        C  0.32589228  0.15077613  0.17000984    -0.12800
C208        C  0.34532210  0.13332496  0.15405529     0.00700
C209        C  0.34006548  0.20164789  0.09974437     0.40000
C210        C  0.34683577  0.11014802  0.17258518     0.36600
C211        C  0.43116449  0.14215263  0.12813984     0.36400
C212        C  0.37657797  0.06509588  0.04456391     0.37100
N213        N  0.33886905  0.21976877  0.08345083    -0.43700
N214        N  0.34799428  0.09158328  0.18748379    -0.44100
N215        N  0.36494929  0.05014474  0.02649350    -0.41500
N216        N  0.44253194  0.15787033  0.14469825    -0.42900
H217        H  0.46094939  0.10609635  0.09469875     0.13300
H218        H  0.34712949  0.10038717  0.07964085     0.09700
H219        H  0.37484657  0.16549158  0.07840624     0.10800
H220        H  0.31276391  0.14637740  0.19595993     0.16600
C221        C  0.40742650  0.38153070  0.41361748    -0.01600
C222        C  0.39358728  0.38514264  0.37707056     0.07000
C223        C  0.39855340  0.40664712  0.35706911    -0.07600
C224        C  0.41704570  0.42465672  0.37304834     0.04400
C225        C  0.43057510  0.42132939  0.41018600    -0.14800
C226        C  0.42574966  0.39952866  0.42983008    -0.08100
C227        C  0.37319015  0.36688213  0.35966695     0.05400
C228        C  0.34126904  0.37093599  0.35932698    -0.09200
C229        C  0.32096624  0.35370589  0.34452793     0.00400
C230        C  0.33277113  0.33211876  0.32922442     0.00200
C231        C  0.36481923  0.32819747  0.32961529    -0.12800
C232        C  0.38503060  0.34537827  0.34451809     0.00700
C233        C  0.28819355  0.35808918  0.34735318     0.40000
C234        C  0.41780210  0.34068686  0.34346041     0.36600
C235        C  0.40239402  0.35975754  0.43543991     0.36400
C236        C  0.42224914  0.44598176  0.35011021     0.37100
N237        N  0.26193136  0.36154841  0.34987396    -0.43700
N238        N  0.44402445  0.33679899  0.34250506    -0.44100
N239        N  0.42640199  0.46301746  0.33160767    -0.41500
N240        N  0.39835363  0.34226386  0.45280326    -0.42900
H241        H  0.43566366  0.39671086  0.45841825     0.13300
H242        H  0.38801519  0.40929370  0.32878455     0.09700
H243        H  0.33219355  0.38740723  0.37143278     0.10800
H244        H  0.37418011  0.31176103  0.31773048     0.16600
C245        C  0.38484709  0.15956002  0.34716572    -0.01600
C246        C  0.37404134  0.13644259  0.35644524     0.07000
C247        C  0.34294613  0.13069561  0.34971710    -0.07600
C248        C  0.32265868  0.14755551  0.33368529     0.04400
C249        C  0.33351654  0.17074974  0.32419809    -0.14800
C250        C  0.36465693  0.17641230  0.33131427    -0.08100
C251        C  0.39465566  0.11831157  0.37431004     0.05400
C252        C  0.40743614  0.12299881  0.41091314    -0.09200
C253        C  0.42686479  0.10645567  0.42912885     0.00400
C254        C  0.43342600  0.08428216  0.41085412     0.00200
C255        C  0.42071669  0.07981497  0.37387275    -0.12800
C256        C  0.40171153  0.09662121  0.35548964     0.00700
C257        C  0.43888329  0.11279977  0.46687453     0.40000
C258        C  0.39036567  0.09147523  0.31691911     0.36600
C259        C  0.41675013  0.16624791  0.35281258     0.36400
C260        C  0.29069619  0.14081739  0.32893175     0.37100
N261        N  0.45703853  0.11959088  0.99050016    -0.43700
N262        N  0.38142199  0.08736014  0.28593995    -0.44100
N263        N  0.26510337  0.13529708  0.32529832    -0.41500
N264        N  0.44231382  0.17159529  0.35733492    -0.42900
H265        H  0.37345693  0.19405202  0.32401055     0.13300
H266        H  0.33443399  0.11305142  0.35751510     0.09700
H267        H  0.40199832  0.13969134  0.42546006     0.10800
H268        H  0.42569633  0.06312868  0.35909071     0.16600
C269        C  0.15074439  0.36870118  0.33638700    -0.01600
C270        C  0.14049249  0.36677848  0.37520624     0.07000
C271        C  0.14950652  0.34695329  0.39747206    -0.07600
C272        C  0.16851256  0.32911120  0.38164301     0.04400
C273        C  0.17890824  0.33099143  0.34262234    -0.14800
C274        C  0.16990591  0.35103143  0.32057576    -0.08100
C275        C  0.12007841  0.38516654  0.39287780     0.05400
C276        C  0.08911904  0.37942653  0.40082855    -0.09200
C277        C  0.06885773  0.39656409  0.41628987     0.00400
C278        C  0.07973418  0.41993770  0.42445969     0.00200
C279        C  0.11083886  0.42543977  0.41666821    -0.12800
C280        C  0.13091889  0.40840230  0.40112773     0.00700
C281        C  0.03696660  0.38985544  0.42230146     0.40000
C282        C  0.16263317  0.41525721  0.39434755     0.36600
C283        C  0.14103768  0.38828851  0.31188426     0.36400
C284        C  0.17754569  0.30953940  0.40659066     0.37100
N285        N  0.01143632  0.38453082  0.42742806    -0.43700
N286        N  0.18792776  0.42113338  0.38903658    -0.44100
N287        N  0.18458762  0.29399815  0.42700702    -0.41500
N288        N  0.13312725  0.40402017  0.29240103    -0.42900
H289        H  0.17719122  0.35261347  0.29046433     0.13300
H290        H  0.14175290  0.34549278  0.42741622     0.09700
H291        H  0.08065392  0.36160323  0.39428496     0.10800
H292        H  0.11972813  0.44315653  0.42310699     0.16600
C293        C  0.41592292  0.38661296  0.11325990    -0.01600
C294        C  0.38348588  0.38876737  0.11305839     0.07000
C295        C  0.36977314  0.40837566  0.09449995    -0.07600
C296        C  0.38790617  0.42584676  0.07627755     0.04400
C297        C  0.42041489  0.42375141  0.07662830    -0.14800
C298        C  0.43406360  0.40395779  0.09481001    -0.08100
C299        C  0.36330452  0.37044305  0.13106291     0.05400
C300        C  0.34623798  0.37631102  0.16432999    -0.09200
C301        C  0.32695855  0.35939999  0.18231806     0.00400
C302        C  0.32416963  0.33604617  0.16641065     0.00200
C303        C  0.34109427  0.33057476  0.13246675    -0.12800
C304        C  0.36050947  0.34745393  0.11492138     0.00700
C305        C  0.31144224  0.36652634  0.21766186     0.40000
C306        C  0.37722537  0.34093030  0.08011917     0.36600
C307        C  0.43114972  0.36707462  0.13286493     0.36400
C308        C  0.37249751  0.44517166  0.05628482     0.37100
N309        N  0.29920836  0.37248229  0.24599241    -0.43700
N310        N  0.39089599  0.33591660  0.05235911    -0.41700
N311        N  0.35988752  0.46050246  0.04020602    -0.41500
N312        N  0.44353611  0.35145209  0.14846484    -0.42900
H313        H  0.45901807  0.40236598  0.09547394     0.13300
H314        H  0.34480897  0.40985013  0.09389244     0.09700
H315        H  0.34842638  0.39409928  0.17664772     0.10800
H316        H  0.33932551  0.31296956  0.11943914     0.16600
O317        O  0.43160124  0.46177959  0.56299460    -0.74900
O318        O  0.46326048  0.43336202  0.53715118    -0.53800
C319        C  0.43906369  0.43992596  0.55598577     0.78900
O320        O  0.44452585  0.04361099  0.91827154    -0.59500
O321        O  0.47296478  0.07085997  0.95199810    -0.52500
C322        C  0.45228288  0.06525686  0.92690211     0.70900
O323        O  0.44415772  0.46245070  0.92365614    -0.74000
O324        O  0.46987233  0.43420280  0.95863230    -0.54600
C325        C  0.44988104  0.44060162  0.93298990     0.76900
O326        O  0.43277086  0.04316719  0.56630958    -0.59200
O327        O  0.46482645  0.07104427  0.53909570    -0.52300
C328        C  0.44077227  0.06490260  0.55885935     0.73500
Zr329      Zr  0.45336198  0.50174426  0.55450649     2.54700
O330        O  0.39759034  0.50263196  0.56185322    -0.79700
O331        O  0.44854312  0.00174334  0.62435635    -0.93200
Zr332      Zr  0.46168458  0.50262069  0.93996371     2.64700
O333        O  0.40596683  0.50249326  0.93071076    -0.98100
O334        O  0.46399376  0.00224529  0.86745590    -0.80200
O335        O  0.45529754  0.47913053  0.49632667    -0.83500
O336        O  0.45607141  0.02558548  0.49587955    -2.18200
O337        O  0.06236337  0.04250791  0.58023521    -0.66900
O338        O  0.03628108  0.07037119  0.54489933    -0.51500
C339        C  0.05673422  0.06430897  0.57007887     0.71900
O340        O  0.06704578  0.46061248  0.93423602    -0.59800
O341        O  0.03500054  0.43305850  0.96224773    -0.51800
C342        C  0.05841048  0.43894618  0.94116948     0.73700
O343        O  0.06911635  0.04196974  0.93023339    -0.71200
O344        O  0.03917867  0.07032533  0.95942323    -0.49900
C345        C  0.06188691  0.06376327  0.93774369     0.75000
O346        O  0.06019776  0.46244608  0.57906532    -0.66500
O347        O  0.03314477  0.43402891  0.54605072    -0.53700
C348        C  0.05384900  0.44050532  0.57083109     0.73400
Zr349      Zr  0.04390728  0.00193845  0.56585060     2.77500
O350        O  0.09820316  0.00014444  0.58413900    -0.97300
O351        O  0.03004556  0.00250515  0.63450397    -0.78100
Zr352      Zr  0.05065971  0.00224504  0.94654685     2.70100
O353        O  0.10679177  0.00349723  0.94922964    -0.79400
O354        O  0.05007335  0.00118793  0.87575306    -0.98400
Zr355      Zr  0.99969425  0.45621034  0.00205327     2.21500
Zr356      Zr  0.50237965  0.04816112  0.50191221     2.11100
O357        O  0.04785384  0.02553989  0.00397209    -2.47100
O358        O  0.04623169  0.47877615  0.00532767    -0.79200
O359        O  0.49675047  0.02602417  0.56097120    -0.71400
O360        O  0.00324825  0.47815111  0.94263612    -2.32300
O361        O  0.99740122  0.47930412  0.55922051    -2.28500
O362        O  0.50490938  0.02535753  0.93904400    -0.73100
H363        H  0.43874550  0.03680003  0.99348306     0.78900
H364        H  0.00426366  0.46746051  0.92062794     0.80000
H365        H  0.06789680  0.03377908  0.50885702     0.82200
H366        H  0.99585054  0.46909449  0.58185284     0.79800
H367        H  0.48586371  0.49048377  0.86515643     0.42800
H368        H  0.03315779  0.01214826  0.86831889     0.41800
H369        H  0.11029357  0.50622361  0.97557926     0.41500
H370        H  0.10908012  0.01007730  0.56452797     0.39400
H371        H  0.02810373  0.01970427  0.64093008     0.42600
H372        H  0.44633467  0.48497102  0.63240021     0.37300
H373        H  0.38984569  0.50112197  0.53489349     0.43500
H374        H  0.39599899  0.01687447  0.95235717     0.39900
H375        H  0.09974280  0.00932530  0.60867139     0.44800
H376        H  0.44468714  0.51291237  0.63463679     0.43500
H377        H  0.40308373  0.50676526  0.90298496     0.43600
H378        H  0.06910433  0.00975124  0.86781550     0.44000
O379        O  0.31845386  0.29305628  0.82134940    -0.74900
O380        O  0.28752925  0.32123793  0.79359674    -0.53800
C381        C  0.31068528  0.31488931  0.81462829     0.78900
O382        O  0.31102385  0.21455700  0.66934482    -0.59500
O383        O  0.28606615  0.18582194  0.70439570    -0.52500
C384        C  0.30542509  0.19254901  0.67803010     0.70900
O385        O  0.31096021  0.29445366  0.67598304    -0.74000
O386        O  0.28275951  0.32189151  0.70948417    -0.54600
C387        C  0.30366987  0.31609018  0.68459527     0.76900
O388        O  0.31793762  0.21273395  0.82221708    -0.59200
O389        O  0.29057835  0.18456368  0.78888407    -0.52300
C390        C  0.31206735  0.19095440  0.81251510     0.73500
Zr391      Zr  0.30016802  0.25287695  0.80672092     2.54700
O392        O  0.35632098  0.25282018  0.80401511    -0.79700
O393        O  0.30103890  0.25329748  0.87761257    -0.93200
Zr394      Zr  0.29457991  0.25409530  0.69120718     2.64700
O395        O  0.35057475  0.25505526  0.68453472    -0.98100
O396        O  0.28611174  0.25687528  0.62138904    -0.80200
O397        O  0.29745237  0.27652461  0.74962080    -0.83500
O398        O  0.29893429  0.23053016  0.74812936    -2.18200
O399        O  0.19434790  0.21032599  0.83002277    -0.66900
O400        O  0.22127441  0.18326974  0.79408513    -0.51500
C401        C  0.20097120  0.18878640  0.81988260     0.71900
O402        O  0.18300448  0.29334259  0.68809222    -0.59800
O403        O  0.21352339  0.32150609  0.71689925    -0.51800
C404        C  0.19007278  0.31519798  0.69638318     0.73700
O405        O  0.18739267  0.21264919  0.68087715    -0.71200
O406        O  0.21778987  0.18447687  0.70972019    -0.49900
C407        C  0.19524281  0.19081975  0.68770314     0.75000
O408        O  0.18937471  0.29030549  0.83018634    -0.66500
O409        O  0.21617108  0.31949391  0.79829660    -0.53700
C410        C  0.19515766  0.31235862  0.82225282     0.73400
Zr411      Zr  0.20958543  0.25106906  0.81378257     2.77500
O412        O  0.15397690  0.25003945  0.82460563    -0.97300
O413        O  0.22018662  0.25085018  0.88331205    -0.78100
Zr414      Zr  0.20379649  0.25300385  0.69822313     2.70100
O415        O  0.14777218  0.24995656  0.69765175    -0.79400
O416        O  0.20695058  0.25547528  0.62759964    -0.98400
Zr417      Zr  0.25092777  0.29888903  0.75420189     2.21500
Zr418      Zr  0.25330075  0.20673724  0.75052193     2.11100
O419        O  0.20656901  0.22906889  0.75509568    -2.47100
O420        O  0.20553032  0.27492822  0.75699889    -0.79200
O421        O  0.25555925  0.22828714  0.81031599    -0.71400
O422        O  0.24867674  0.27711320  0.69462978    -2.32300
O423        O  0.25423470  0.27565631  0.81235676    -2.28500
O424        O  0.24959053  0.23000349  0.69266997    -0.73100
H425        H  0.31721462  0.22067223  0.74630506     0.78900
H426        H  0.24732897  0.28780515  0.67259122     0.80000
H427        H  0.18876912  0.21860171  0.75605667     0.82200
H428        H  0.25489369  0.28582973  0.83501170     0.79800
H429        H  0.30643893  0.26159688  0.61057367     0.42800
H430        H  0.20565089  0.23867871  0.61857977     0.41800
H431        H  0.14212508  0.24668969  0.72508753     0.41500
H432        H  0.14626382  0.23691362  0.80789716     0.39400
H433        H  0.20383175  0.24058717  0.89470643     0.42600
H434        H  0.28367425  0.26377318  0.88532753     0.37300
H435        H  0.36123894  0.25427891  0.77596881     0.43500
H436        H  0.35798712  0.24085400  0.69899524     0.39900
H437        H  0.15140482  0.24403979  0.85154134     0.44800
H438        H  0.31974772  0.26259508  0.88434773     0.43500
H439        H  0.35452225  0.25125547  0.65684293     0.43600
H440        H  0.18709727  0.26269272  0.61962763     0.44000
C441        C  0.11049174  0.09548879  0.64099048    -0.01600
C442        C  0.11464487  0.11810396  0.62351112     0.07000
C443        C  0.09920673  0.12329795  0.58876017    -0.07600
C444        C  0.07980440  0.10646746  0.57117500     0.04400
C445        C  0.07575595  0.08352623  0.58832743    -0.14800
C446        C  0.09136200  0.07846070  0.62331150    -0.08100
C447        C  0.13520048  0.13661821  0.64054688     0.05400
C448        C  0.16693417  0.13198039  0.64395635    -0.09200
C449        C  0.18719759  0.14936231  0.65860937     0.00400
C450        C  0.17562440  0.17189197  0.67029575     0.00200
C451        C  0.14390533  0.17651257  0.66630335    -0.12800
C452        C  0.12375312  0.15919197  0.65171799     0.00700
C453        C  0.21974966  0.14388434  0.65983591     0.40000
C454        C  0.09130255  0.16490137  0.64938877     0.36600
C455        C  0.12492304  0.08955750  0.67758586     0.36400
C456        C  0.06528287  0.11337027  0.53508714     0.37100
N457        N  0.24581086  0.13939069  0.66067021    -0.43700
N458        N  0.06535534  0.16965367  0.64756507    -0.44100
N459        N  0.06139947  0.11641946  0.99832558    -0.41500
N460        N  0.13636264  0.08477297  0.70697525    -0.42900
H461        H  0.08849406  0.06115295  0.63720155     0.13300
H462        H  0.10259343  0.14062742  0.57507583     0.09700
H463        H  0.17594217  0.11483266  0.63456437     0.10800
H464        H  0.13460639  0.19363450  0.67537863     0.16600
C465        C  0.14975488  0.15713999  0.89303142    -0.01600
C466        C  0.14486041  0.13486109  0.87513560     0.07000
C467        C  0.15960617  0.12967350  0.83986554    -0.07600
C468        C  0.17852584  0.14662567  0.82159183     0.04400
C469        C  0.18318506  0.16929820  0.83908436    -0.14800
C470        C  0.16881561  0.17408928  0.87505869    -0.08100
C471        C  0.12378192  0.11686128  0.89217412     0.05400
C472        C  0.09188936  0.12118573  0.89177736    -0.09200
C473        C  0.07109789  0.10405143  0.90599633     0.00400
C474        C  0.08238037  0.08235979  0.92145119     0.00200
C475        C  0.11436202  0.07814445  0.92177467    -0.12800
C476        C  0.13504767  0.09516997  0.90728767     0.00700
C477        C  0.03841443  0.10856688  0.90239643     0.40000
C478        C  0.16774659  0.09023743  0.90875662     0.36600
C479        C  0.13561802  0.16285819  0.92995464     0.36400
C480        C  0.19134859  0.14052757  0.78410033     0.37100
N481        N  0.01222842  0.11209381  0.89915593    -0.43700
N482        N  0.19397299  0.08639716  0.90986651    -0.44100
N483        N  0.20155650  0.13555915  0.75405572    -0.41500
N484        N  0.12426483  0.16733051  0.95956288    -0.42900
H485        H  0.17222988  0.19123479  0.88916539     0.13300
H486        H  0.15565638  0.11247759  0.82610662     0.09700
H487        H  0.08324991  0.13777139  0.87953534     0.10800
H488        H  0.12326476  0.06157950  0.93380534     0.16600
C489        C  0.10672201  0.41204351  0.64591554    -0.01600
C490        C  0.11219523  0.38919021  0.63008450     0.07000
C491        C  0.09723545  0.38270092  0.59555366    -0.07600
C492        C  0.07764561  0.39866763  0.57612544     0.04400
C493        C  0.07236933  0.42183068  0.59148260    -0.14800
C494        C  0.08693159  0.42799530  0.62676025    -0.08100
C495        C  0.13254689  0.37128093  0.64924837     0.05400
C496        C  0.11920264  0.35003971  0.66309078    -0.09200
C497        C  0.13736084  0.33174906  0.67884897     0.00400
C498        C  0.16979412  0.33448549  0.68105615     0.00200
C499        C  0.18311329  0.35603875  0.66789509    -0.12800
C500        C  0.16486491  0.37422882  0.65162030     0.00700
C501        C  0.12178659  0.31073125  0.69354480     0.40000
C502        C  0.17993282  0.39513288  0.63564180     0.36600
C503        C  0.12111171  0.41964483  0.68166889     0.36400
C504        C  0.06439334  0.39078290  0.53991611     0.37100
N505        N  0.10890474  0.29405689  0.70531974    -0.43700
N506        N  0.19202354  0.41182687  0.62263845    -0.44100
N507        N  0.05185638  0.38446870  0.00788021    -0.41500
N508        N  0.13271446  0.42608210  0.71008460    -0.42900
H509        H  0.08309287  0.44550366  0.63942945     0.13300
H510        H  0.10131748  0.36508785  0.58335475     0.09700
H511        H  0.09437502  0.34769483  0.66132084     0.10800
H512        H  0.20795898  0.35836507  0.66912502     0.16600
C513        C  0.41492765  0.12213463  0.60791612    -0.01600
C514        C  0.38254062  0.11936291  0.60817743     0.07000
C515        C  0.36934838  0.09933146  0.59031325    -0.07600
C516        C  0.38789118  0.08186962  0.57295488     0.04400
C517        C  0.42044601  0.08401905  0.57411116    -0.14800
C518        C  0.43360788  0.10449049  0.59101363    -0.08100
C519        C  0.36190710  0.13760794  0.62559840     0.05400
C520        C  0.35891632  0.15979845  0.60704605    -0.09200
C521        C  0.33984044  0.17766961  0.62242641     0.00400
C522        C  0.32357368  0.17358343  0.65775139     0.00200
C523        C  0.32609027  0.15093779  0.67555930    -0.12800
C524        C  0.34483685  0.13302811  0.65974912     0.00700
C525        C  0.33702530  0.19958629  0.60042400     0.40000
C526        C  0.34666491  0.11029961  0.67965842     0.36600
C527        C  0.42943297  0.14266790  0.62563122     0.36400
C528        C  0.37273536  0.06273743  0.55221236     0.37100
N529        N  0.33499052  0.21693674  0.58217783    -0.43700
N530        N  0.34784091  0.09213049  0.69579704    -0.44100
N531        N  0.36016550  0.04775838  0.53524011    -0.41500
N532        N  0.44095800  0.15917074  0.63984509    -0.42900
H533        H  0.45851405  0.10647349  0.59171098     0.13300
H534        H  0.34441264  0.09755983  0.58940132     0.09700
H535        H  0.37146392  0.16309020  0.58019920     0.10800
H536        H  0.31391079  0.14726466  0.70252147     0.16600
C537        C  0.40646352  0.38231903  0.91874876    -0.01600
C538        C  0.39173683  0.38605039  0.88271350     0.07000
C539        C  0.39712545  0.40736057  0.86231760    -0.07600
C540        C  0.41670792  0.42502715  0.87730961     0.04400
C541        C  0.43120406  0.42158507  0.91387744    -0.14800
C542        C  0.42610272  0.39992203  0.93387489    -0.08100
C543        C  0.37100470  0.36779743  0.86534192     0.05400
C544        C  0.33951174  0.37296751  0.86076932    -0.09200
C545        C  0.31930478  0.35620390  0.84415727     0.00400
C546        C  0.33066922  0.33371236  0.83189786     0.00200
C547        C  0.36231092  0.32876286  0.83638442    -0.12800
C548        C  0.38244068  0.34558552  0.85255976     0.00700
C549        C  0.28702752  0.36233935  0.84107912     0.40000
C550        C  0.41491051  0.33991925  0.85485412     0.36600
C551        C  0.40101950  0.36083269  0.94115918     0.36400
C552        C  0.42173690  0.44620828  0.85396670     0.37100
N553        N  0.26117632  0.36728180  0.83847957    -0.43700
N554        N  0.44094164  0.33547188  0.85682040    -0.44100
N555        N  0.42557413  0.46313197  0.83508894    -0.41500
N556        N  0.39658086  0.34349936  0.95879423    -0.42900
H557        H  0.43671369  0.39696879  0.96202150     0.13300
H558        H  0.38611197  0.41010558  0.83434832     0.09700
H559        H  0.33068724  0.39010658  0.87047601     0.10800
H560        H  0.37154423  0.31177278  0.82659469     0.16600
C561        C  0.38517110  0.16194467  0.84901600    -0.01600
C562        C  0.37571853  0.13817221  0.85614861     0.07000
C563        C  0.34481355  0.13175798  0.84942695    -0.07600
C564        C  0.32355103  0.14841173  0.83505872     0.04400
C565        C  0.33291296  0.17234401  0.82845599    -0.14800
C566        C  0.36376124  0.17877750  0.83592597    -0.08100
C567        C  0.39734640  0.12000700  0.87208221     0.05400
C568        C  0.41262667  0.12489623  0.90709582    -0.09200
C569        C  0.43166360  0.10786768  0.92466170     0.00400
C570        C  0.43534322  0.08501305  0.90735658     0.00200
C571        C  0.42066219  0.08043168  0.87165951    -0.12800
C572        C  0.40191805  0.09765472  0.85395174     0.00700
C573        C  0.44575036  0.11424743  0.96128377     0.40000
C574        C  0.38759632  0.09192105  0.81722359     0.36600
C575        C  0.41697849  0.16929372  0.85331666     0.36400
C576        C  0.29234571  0.14039470  0.82804977     0.37100
N577        N  0.44848499  0.11836164  0.49692065    -0.43700
N578        N  0.37596268  0.08728568  0.78790959    -0.44100
N579        N  0.26746962  0.13370457  0.82229919    -0.41500
N580        N  0.44248995  0.17511681  0.85664755    -0.42900
H581        H  0.37154209  0.19692936  0.83031843     0.13300
H582        H  0.33723304  0.11362060  0.85553736     0.09700
H583        H  0.40897175  0.14194982  0.92140923     0.10800
H584        H  0.42352918  0.06320326  0.85764001     0.16600
C585        C  0.15136760  0.37015000  0.83713884    -0.01600
C586        C  0.13659240  0.36623903  0.87317717     0.07000
C587        C  0.14148263  0.34468843  0.89305625    -0.07600
C588        C  0.16069800  0.32697443  0.87748039     0.04400
C589        C  0.17559983  0.33081486  0.84119081    -0.14800
C590        C  0.17072717  0.35258271  0.82159671    -0.08100
C591        C  0.11655148  0.38466744  0.89109650     0.05400
C592        C  0.08453541  0.38089127  0.89295976    -0.09200
C593        C  0.06496691  0.39814542  0.90939598     0.00400
C594        C  0.07758364  0.41967920  0.92411086     0.00200
C595        C  0.10969400  0.42320032  0.92238834    -0.12800
C596        C  0.12915422  0.40584420  0.90652990     0.00700
C597        C  0.03212133  0.39358524  0.90970071     0.40000
C598        C  0.16209622  0.40980074  0.90739782     0.36600
C599        C  0.14664384  0.39188241  0.81521175     0.36400
C600        C  0.16486645  0.30527163  0.89975024     0.37100
N601        N  0.00582285  0.38986298  0.91003488    -0.43700
N602        N  0.18851898  0.41283597  0.90822292    -0.44100
N603        N  0.16801863  0.28782206  0.91748678    -0.41500
N604        N  0.14304342  0.40926945  0.79748108    -0.42900
H605        H  0.18154348  0.35573777  0.79355359     0.13300
H606        H  0.13036410  0.34178468  0.92098841     0.09700
H607        H  0.07483523  0.36451983  0.88122367     0.10800
H608        H  0.11973802  0.43944366  0.93414279     0.16600
C609        C  0.41217643  0.38437877  0.60885245    -0.01600
C610        C  0.37980277  0.38656959  0.60646456     0.07000
C611        C  0.36695025  0.40579762  0.58599143    -0.07600
C612        C  0.38590918  0.42296644  0.56826974     0.04400
C613        C  0.41834856  0.42111503  0.57133835    -0.14800
C614        C  0.43117043  0.40150655  0.59104472    -0.08100
C615        C  0.35896061  0.36892188  0.62508436     0.05400
C616        C  0.34234179  0.37555259  0.65839281    -0.09200
C617        C  0.32354242  0.35899397  0.67799074     0.00400
C618        C  0.32109788  0.33524145  0.66392788     0.00200
C619        C  0.33707252  0.32907716  0.62961874    -0.12800
C620        C  0.35586184  0.34559441  0.61031911     0.00700
C621        C  0.30810337  0.36678321  0.71301746     0.40000
C622        C  0.37174083  0.33817006  0.57539109     0.36600
C623        C  0.42631644  0.36519005  0.63060062     0.36400
C624        C  0.37159049  0.44171007  0.54570315     0.37100
N625        N  0.29569163  0.37304938  0.74104474    -0.43700
N626        N  0.38444835  0.33210189  0.54746734    -0.41700
N627        N  0.36016468  0.45659890  0.52728504    -0.41500
N628        N  0.43757220  0.34982799  0.64814256    -0.42900
H629        H  0.45604454  0.39999060  0.59360818     0.13300
H630        H  0.34205526  0.40726415  0.58363814     0.09700
H631        H  0.34465101  0.39360419  0.66959180     0.10800
H632        H  0.33516717  0.31115232  0.61779202     0.16600
O633        O  0.43115825  0.96478016  0.06321173    -0.74900
O634        O  0.46245001  0.93550700  0.03915144    -0.53800
C635        C  0.43825074  0.94274765  0.05736731     0.78900
O636        O  0.44227941  0.54258962  0.42169258    -0.59500
O637        O  0.46832331  0.57049078  0.45702107    -0.52500
C638        C  0.44798381  0.56436451  0.43164670     0.70900
O639        O  0.44524586  0.96263900  0.41903628    -0.74000
O640        O  0.46913134  0.93454391  0.45647499    -0.54600
C641        C  0.45066677  0.94080480  0.42901884     0.76900
O642        O  0.43558256  0.54392195  0.06676379    -0.59200
O643        O  0.46714428  0.57163011  0.03843538    -0.52300
C644        C  0.44324062  0.56564944  0.05861048     0.73500
Zr645      Zr  0.45452716  0.00395714  0.05375135     2.54700
O646        O  0.39905662  0.00589278  0.06406742    -0.79700
O647        O  0.46466457  0.50443199  0.12604570    -0.93200
Zr648      Zr  0.46131752  0.00279940  0.43840358     2.64700
O649        O  0.40537784  0.00283665  0.43159149    -0.98100
O650        O  0.46790081  0.50375979  0.36861867    -0.80200
O651        O  0.45515705  0.98051851  0.99639992    -0.83500
O652        O  0.45775171  0.52576606  0.99738199    -2.18200
O653        O  0.06148466  0.54275754  0.07852326    -0.66900
O654        O  0.03554905  0.57049343  0.04280246    -0.51500
C655        C  0.05597018  0.56452185  0.06811940     0.71900
O656        O  0.07245043  0.95917476  0.44245175    -0.59800
O657        O  0.04014560  0.93147112  0.46919915    -0.51800
C658        C  0.06449116  0.93736875  0.44999389     0.73700
O659        O  0.06712947  0.54108933  0.42762578    -0.71200
O660        O  0.03800902  0.56994305  0.45653990    -0.49900
C661        C  0.06019174  0.56308689  0.43425108     0.75000
O662        O  0.06217358  0.96309680  0.07735329    -0.66500
O663        O  0.03485798  0.93467082  0.04460721    -0.53700
C664        C  0.05579662  0.94116841  0.06895309     0.73400
Zr665      Zr  0.04325689  0.50241561  0.06244814     2.77500
O666        O  0.09894369  0.50138638  0.07230504    -0.97300
O667        O  0.03287094  0.50278921  0.13206637    -0.78100
Zr668      Zr  0.04943825  0.50125613  0.44565308     2.70100
O669        O  0.10561517  0.50270116  0.44671343    -0.79400
O670        O  0.04921624  0.49909114  0.37495841    -0.98400
Zr671      Zr  0.00253368  0.95536360  0.50370779     2.21500
Zr672      Zr  0.50431089  0.54836053  0.00117506     2.11100
O673        O  0.04778972  0.52474855  0.50284265    -2.47100
O674        O  0.04878333  0.97824407  0.50899656    -0.79200
O675        O  0.50134441  0.52672085  0.06070472    -0.71400
O676        O  0.00771002  0.97713490  0.44431543    -2.32300
O677        O  0.99797864  0.97937264  0.05867610    -2.28500
O678        O  0.50507562  0.52553031  0.44116147    -0.73100
H679        H  0.43748677  0.53469132  0.49498321     0.78900
H680        H  0.00943139  0.96642087  0.42240028     0.80000
H681        H  0.06558213  0.53465221  0.00480428     0.82200
H682        H  0.99648758  0.96899522  0.08111602     0.79800
H683        H  0.48659027  0.99226088  0.36372366     0.42800
H684        H  0.03413739  0.51140184  0.36681433     0.41800
H685        H  0.11572641  0.99662129  0.47518691     0.41500
H686        H  0.10744627  0.51290813  0.05312960     0.39400
H687        H  0.05205262  0.50914138  0.14381587     0.42600
H688        H  0.43947108  0.00403306  0.13437112     0.37300
H689        H  0.39032183  0.00467321  0.03755793     0.43500
H690        H  0.39573612  0.51540178  0.44552661     0.39900
H691        H  0.10237902  0.50902360  0.09789933     0.44800
H692        H  0.47063324  0.01807157  0.13066220     0.43500
H693        H  0.40171217  0.00775078  0.40430791     0.43600
H694        H  0.06950051  0.50571073  0.36702761     0.44000
O695        O  0.32295467  0.79203612  0.31435984    -0.74900
O696        O  0.29094729  0.82054112  0.28941483    -0.53800
C697        C  0.31505320  0.81396211  0.30846349     0.78900
O698        O  0.30962017  0.71500021  0.16460945    -0.59500
O699        O  0.28508313  0.68606147  0.19975084    -0.52500
C700        C  0.30427942  0.69294472  0.17329903     0.70900
O701        O  0.30948507  0.79542106  0.17069309    -0.74000
O702        O  0.28274122  0.82237677  0.20700329    -0.54600
C703        C  0.30278260  0.81698018  0.18082137     0.76900
O704        O  0.31971025  0.71159431  0.31562755    -0.59200
O705        O  0.28997321  0.68403168  0.28421197    -0.52300
C706        C  0.31233731  0.68992833  0.30688548     0.73500
Zr707      Zr  0.30239951  0.75212792  0.30143106     2.54700
O708        O  0.35850198  0.74999924  0.29998486    -0.79700
O709        O  0.30168604  0.75291407  0.37225859    -0.93200
Zr710      Zr  0.29325191  0.75470560  0.18603327     2.64700
O711        O  0.34867876  0.75621555  0.17422036    -0.98100
O712        O  0.28175874  0.75618451  0.11681158    -0.80200
O713        O  0.29825672  0.77634207  0.24499788    -0.83500
O714        O  0.29894326  0.73054505  0.24229855    -2.18200
O715        O  0.19567827  0.71011342  0.32832975    -0.66900
O716        O  0.22072637  0.68340317  0.28964872    -0.51500
C717        C  0.20111321  0.68865505  0.31644365     0.71900
O718        O  0.18274126  0.79447658  0.18810745    -0.59800
O719        O  0.21373455  0.82220220  0.21721873    -0.51800
C720        C  0.19005294  0.81616894  0.19684735     0.73700
O721        O  0.18450845  0.71408880  0.18059832    -0.71200
O722        O  0.21617727  0.68571313  0.20656046    -0.49900
C723        C  0.19274862  0.69220488  0.18620141     0.75000
O724        O  0.19526939  0.79062118  0.33371378    -0.66500
O725        O  0.22088135  0.81976885  0.30008094    -0.53700
C726        C  0.20147632  0.81267332  0.32610273     0.73400
Zr727      Zr  0.21202535  0.75104464  0.31312288     2.77500
O728        O  0.15670981  0.75094345  0.32609688    -0.97300
O729        O  0.22470605  0.74998213  0.38205034    -0.78100
Zr730      Zr  0.20273343  0.75406982  0.19774407     2.70100
O731        O  0.14662843  0.75257626  0.19983804    -0.79400
O732        O  0.20329129  0.75622209  0.12698895    -0.98400
Zr733      Zr  0.25215185  0.79901859  0.25233973     2.21500
Zr734      Zr  0.25306064  0.70706503  0.24657672     2.11100
O735        O  0.20689001  0.72976995  0.25396332    -2.47100
O736        O  0.20641041  0.77550545  0.25703751    -0.79200
O737        O  0.25753135  0.72788475  0.30679176    -0.71400
O738        O  0.24777164  0.77797715  0.19233864    -2.32300
O739        O  0.25705790  0.77518973  0.30965842    -2.28500
O740        O  0.24804299  0.73083697  0.18935292    -0.73100
H741        H  0.31701640  0.72053449  0.23961033     0.78900
H742        H  0.24596653  0.78899195  0.17078650     0.80000
H743        H  0.18893029  0.71949556  0.25543662     0.82200
H744        H  0.25883417  0.78508633  0.33255574     0.79800
H745        H  0.30120561  0.76173501  0.10454950     0.42800
H746        H  0.18132211  0.75819281  0.11976607     0.41800
H747        H  0.14173276  0.74453566  0.22479981     0.41500
H748        H  0.14793988  0.73958472  0.30697378     0.39400
H749        H  0.20995602  0.73836624  0.39347689     0.42600
H750        H  0.32375023  0.75339886  0.37973257     0.37300
H751        H  0.36367452  0.74799824  0.27211046     0.43500
H752        H  0.35721073  0.74246749  0.18884922     0.39900
H753        H  0.15437175  0.74281185  0.35155417     0.44800
H754        H  0.29465171  0.73672428  0.38000823     0.43500
H755        H  0.35113265  0.75179097  0.14650314     0.43600
H756        H  0.21287078  0.77185909  0.12074470     0.44000
C757        C  0.10973724  0.59632660  0.13864420    -0.01600
C758        C  0.11309316  0.61904280  0.12130990     0.07000
C759        C  0.09746364  0.62403587  0.08664584    -0.07600
C760        C  0.07856908  0.60685902  0.06900682     0.04400
C761        C  0.07500856  0.58386650  0.08620041    -0.14800
C762        C  0.09094859  0.57899435  0.12106393    -0.08100
C763        C  0.13324292  0.63778411  0.13841799     0.05400
C764        C  0.16514104  0.63380698  0.14039045    -0.09200
C765        C  0.18504965  0.65115242  0.15571428     0.00400
C766        C  0.17303600  0.67324547  0.16894524     0.00200
C767        C  0.14100735  0.67718455  0.16667908    -0.12800
C768        C  0.12113212  0.65963616  0.15192561     0.00700
C769        C  0.21761461  0.64571841  0.15695976     0.40000
C770        C  0.08829268  0.66407179  0.15207914     0.36600
C771        C  0.12479384  0.59070438  0.17498446     0.36400
C772        C  0.06401696  0.61342660  0.03277613     0.37100
N773        N  0.24358549  0.64095422  0.15813653    -0.43700
N774        N  0.06194450  0.66746053  0.15224577    -0.44100
N775        N  0.05700973  0.61821553  0.49972071    -0.41500
N776        N  0.13692919  0.58646243  0.20414966    -0.42900
H777        H  0.08860789  0.56163371  0.13492068     0.13300
H778        H  0.10033154  0.64145202  0.07307025     0.09700
H779        H  0.17451523  0.61705194  0.12976978     0.10800
H780        H  0.13132580  0.69382454  0.17733925     0.16600
C781        C  0.14927851  0.65553638  0.38783125    -0.01600
C782        C  0.14385290  0.63367710  0.36858852     0.07000
C783        C  0.15837241  0.62941251  0.33280841    -0.07600
C784        C  0.17759356  0.64665138  0.31563037     0.04400
C785        C  0.18270825  0.66889429  0.33445986    -0.14800
C786        C  0.16841369  0.67286652  0.37072807    -0.08100
C787        C  0.12236967  0.61535036  0.38468879     0.05400
C788        C  0.09112098  0.62122721  0.39005398    -0.09200
C789        C  0.07012793  0.60453785  0.40543396     0.00400
C790        C  0.08046524  0.58143180  0.41600713     0.00200
C791        C  0.11160970  0.57548771  0.40960262    -0.12800
C792        C  0.13244657  0.59207981  0.39407077     0.00700
C793        C  0.03810198  0.61140803  0.40873410     0.40000
C794        C  0.16418899  0.58485270  0.38899800     0.36600
C795        C  0.13588405  0.66040774  0.42550454     0.36400
C796        C  0.19041107  0.64118301  0.27790798     0.37100
N797        N  0.01247586  0.61703749  0.41126552    -0.43700
N798        N  0.18951642  0.57878431  0.38492980    -0.44100
N799        N  0.20063062  0.63659951  0.24771857    -0.41500
N800        N  0.12517508  0.66424489  0.45572490    -0.42900
H801        H  0.17210812  0.68962448  0.38590356     0.13300
H802        H  0.15406529  0.61268649  0.31775987     0.09700
H803        H  0.08308115  0.63890808  0.38189945     0.10800
H804        H  0.11999476  0.55785814  0.41750102     0.16600
C805        C  0.10613103  0.91155229  0.14515868    -0.01600
C806        C  0.11181438  0.88891994  0.12876721     0.07000
C807        C  0.09781621  0.88286581  0.09339424    -0.07600
C808        C  0.07924466  0.89931183  0.07343714     0.04400
C809        C  0.07406194  0.92236930  0.08929363    -0.14800
C810        C  0.08751318  0.92800686  0.12543094    -0.08100
C811        C  0.13218299  0.87116989  0.14798766     0.05400
C812        C  0.11890090  0.85039762  0.16354645    -0.09200
C813        C  0.13721801  0.83269854  0.18067456     0.00400
C814        C  0.16969756  0.83543863  0.18189590     0.00200
C815        C  0.18291438  0.85660979  0.16717167    -0.12800
C816        C  0.16446783  0.87435917  0.15008822     0.00700
C817        C  0.12180405  0.81247961  0.19833046     0.40000
C818        C  0.17921681  0.89521108  0.13345589     0.36600
C819        C  0.11879521  0.91814351  0.18245651     0.36400
C820        C  0.06723508  0.89224110  0.03603281     0.37100
N821        N  0.10906237  0.79654029  0.21275389    -0.43700
N822        N  0.19099347  0.91191031  0.12002175    -0.44100
N823        N  0.01724859  0.87953657  0.55924867    -0.41500
N824        N  0.12892148  0.92343308  0.21235909    -0.42900
H825        H  0.08346936  0.94537665  0.13849283     0.13300
H826        H  0.10203080  0.86535463  0.08089516     0.09700
H827        H  0.09404291  0.84808089  0.16245120     0.10800
H828        H  0.20776875  0.85895996  0.16788403     0.16600
C829        C  0.41702302  0.62473060  0.10208848    -0.01600
C830        C  0.38481730  0.62122925  0.10521231     0.07000
C831        C  0.37183561  0.60001253  0.09111465    -0.07600
C832        C  0.39029491  0.58211931  0.07485327     0.04400
C833        C  0.42277030  0.58496300  0.07334051    -0.14800
C834        C  0.43571740  0.60659687  0.08644151    -0.08100
C835        C  0.36390410  0.63943187  0.12250013     0.05400
C836        C  0.35889578  0.66101689  0.10270155    -0.09200
C837        C  0.33854649  0.67828708  0.11747083     0.00400
C838        C  0.32297461  0.67420605  0.15327048     0.00200
C839        C  0.32739468  0.65213244  0.17224666    -0.12800
C840        C  0.34756543  0.63489088  0.15727372     0.00700
C841        C  0.33360442  0.69958590  0.09447922     0.40000
C842        C  0.35187591  0.61297621  0.17889449     0.36600
C843        C  0.43142106  0.64653631  0.11541375     0.36400
C844        C  0.37484790  0.56182542  0.05771344     0.37100
N845        N  0.32974167  0.71650899  0.07565987    -0.43700
N846        N  0.35524128  0.59546968  0.19640056    -0.44100
N847        N  0.36183030  0.54597569  0.04360295    -0.41500
N848        N  0.44301269  0.66403804  0.12593794    -0.42900
H849        H  0.46051344  0.60920532  0.08501633     0.13300
H850        H  0.34698935  0.59759605  0.09232127     0.09700
H851        H  0.37071560  0.66425329  0.07532861     0.10800
H852        H  0.31582527  0.64852785  0.19965770     0.16600
C853        C  0.40958472  0.88188554  0.41120856    -0.01600
C854        C  0.39743247  0.88517870  0.37360001     0.07000
C855        C  0.40434096  0.90620145  0.35309484    -0.07600
C856        C  0.42251175  0.92420424  0.36986302     0.04400
C857        C  0.43372207  0.92145377  0.40831651    -0.14800
C858        C  0.42751610  0.89991895  0.42821242    -0.08100
C859        C  0.37671530  0.86717820  0.35561797     0.05400
C860        C  0.34483476  0.87147328  0.35513832    -0.09200
C861        C  0.32428775  0.85455458  0.33972624     0.00400
C862        C  0.33569603  0.83280054  0.32441210     0.00200
C863        C  0.36776209  0.82875589  0.32455423    -0.12800
C864        C  0.38823586  0.84578154  0.33970168     0.00700
C865        C  0.29161283  0.85954312  0.34157124     0.40000
C866        C  0.42100120  0.84116400  0.33812896     0.36600
C867        C  0.40315071  0.86044850  0.43332385     0.36400
C868        C  0.42985716  0.94493607  0.34644976     0.37100
N869        N  0.26540910  0.86346636  0.34300073    -0.43700
N870        N  0.44729159  0.83760678  0.33678904    -0.44100
N871        N  0.43580794  0.96149065  0.32756986    -0.41500
N872        N  0.39801085  0.84325475  0.45102333    -0.42900
H873        H  0.43592972  0.89737993  0.45762613     0.13300
H874        H  0.39543038  0.90854231  0.32386991     0.09700
H875        H  0.33596656  0.88795503  0.36744188     0.10800
H876        H  0.37691622  0.81232773  0.31240473     0.16600
C877        C  0.38284693  0.65817495  0.34581937    -0.01600
C878        C  0.37083544  0.63573612  0.35694707     0.07000
C879        C  0.33937132  0.63088897  0.35118189    -0.07600
C880        C  0.31980593  0.64808494  0.33467825     0.04400
C881        C  0.33178685  0.67069526  0.32371240    -0.14800
C882        C  0.36337905  0.67538041  0.32945294    -0.08100
C883        C  0.39069941  0.61738940  0.37556938     0.05400
C884        C  0.40364671  0.62226806  0.41202365    -0.09200
C885        C  0.42261070  0.60557853  0.43071964     0.00400
C886        C  0.42919089  0.58337492  0.41262155     0.00200
C887        C  0.41603204  0.57862164  0.37596026    -0.12800
C888        C  0.39691445  0.59532456  0.35751595     0.00700
C889        C  0.43367258  0.61159180  0.46904461     0.40000
C890        C  0.38415428  0.58959790  0.31988336     0.36600
C891        C  0.41518772  0.66378976  0.35056905     0.36400
C892        C  0.28741665  0.64236767  0.33099087     0.37100
N893        N  0.45798192  0.62009512  0.99114259    -0.43700
N894        N  0.37370687  0.58512954  0.28980069    -0.44100
N895        N  0.26147167  0.63771817  0.32815000    -0.41500
N896        N  0.44111675  0.66812860  0.35461550    -0.42900
H897        H  0.37301472  0.69253347  0.32085651     0.13300
H898        H  0.33000676  0.61372447  0.36017808     0.09700
H899        H  0.39854286  0.63915471  0.42616326     0.10800
H900        H  0.42066503  0.56176218  0.36152328     0.16600
C901        C  0.15811551  0.86985362  0.34677163    -0.01600
C902        C  0.14729230  0.86613990  0.38507528     0.07000
C903        C  0.15520550  0.84496741  0.40461384    -0.07600
C904        C  0.17355238  0.82756141  0.38653409     0.04400
C905        C  0.18419648  0.83121014  0.34796687    -0.14800
C906        C  0.17665377  0.85262776  0.32883014    -0.08100
C907        C  0.12691387  0.88383847  0.40460849     0.05400
C908        C  0.09635182  0.87743379  0.41340827    -0.09200
C909        C  0.07555488  0.89421770  0.42874320     0.00400
C910        C  0.08542886  0.91807102  0.43571924     0.00200
C911        C  0.11649032  0.92399842  0.42821226    -0.12800
C912        C  0.13712422  0.90721362  0.41299187     0.00700
C913        C  0.04408684  0.88654195  0.43516758     0.40000
C914        C  0.16870744  0.91444298  0.40618000     0.36600
C915        C  0.14917558  0.89061125  0.32444973     0.36400
C916        C  0.18170105  0.80647910  0.40860869     0.37100
N917        N  0.01893992  0.88016319  0.44013537    -0.43700
N918        N  0.19396412  0.92031031  0.40055611    -0.44100
N919        N  0.18831630  0.78960016  0.42626299    -0.41500
N920        N  0.14198496  0.90719391  0.30643988    -0.42900
H921        H  0.18425335  0.85555651  0.29910190     0.13300
H922        H  0.14701637  0.84206110  0.43409531     0.09700
H923        H  0.08846434  0.85941151  0.40711560     0.10800
H924        H  0.12482996  0.94193429  0.43414848     0.16600
C925        C  0.41000963  0.88755768  0.10976776    -0.01600
C926        C  0.37771212  0.88975899  0.10627559     0.07000
C927        C  0.36528680  0.90920375  0.08593398    -0.07600
C928        C  0.38462114  0.92648669  0.06916101     0.04400
C929        C  0.41700886  0.92449109  0.07313822    -0.14800
C930        C  0.42936522  0.90486474  0.09320078    -0.08100
C931        C  0.35661272  0.87175042  0.12343361     0.05400
C932        C  0.34040053  0.87738955  0.15747337    -0.09200
C933        C  0.32211146  0.86018405  0.17632824     0.00400
C934        C  0.31981055  0.83670996  0.16082881     0.00200
C935        C  0.33532748  0.83158370  0.12574355    -0.12800
C936        C  0.35347132  0.84884464  0.10704488     0.00700
C937        C  0.30710580  0.86704144  0.21217030     0.40000
C938        C  0.36869189  0.84270743  0.07101469     0.36600
C939        C  0.42375284  0.86777631  0.13046091     0.36400
C940        C  0.37066317  0.94540361  0.04658375     0.37100
N941        N  0.29499612  0.87249115  0.24085520    -0.43700
N942        N  0.38086880  0.83785212  0.04210597    -0.41700
N943        N  0.35925384  0.96037356  0.02831490    -0.41500
N944        N  0.43478439  0.85185844  0.14687637    -0.42900
H945        H  0.45418071  0.90324899  0.09644781     0.13300
H946        H  0.34045327  0.91067552  0.08274760     0.09700
H947        H  0.34272995  0.89513587  0.16989815     0.10800
H948        H  0.33352409  0.81394301  0.11283823     0.16600
O949        O  0.42972866  0.96286114  0.56413798    -0.74900
O950        O  0.46173412  0.93450373  0.53870958    -0.53800
C951        C  0.43739955  0.94102158  0.55731499     0.78900
O952        O  0.44642876  0.54310428  0.92132163    -0.59500
O953        O  0.47341532  0.57087499  0.95566797    -0.52500
C954        C  0.45316489  0.56488385  0.93022644     0.70900
O955        O  0.43984551  0.96294151  0.92276631    -0.74000
O956        O  0.46632294  0.93453231  0.95647238    -0.54600
C957        C  0.44575033  0.94106346  0.93168860     0.76900
O958        O  0.43354828  0.54192956  0.56663342    -0.59200
O959        O  0.46458674  0.57027304  0.53880486    -0.52300
C960        C  0.44081061  0.56378004  0.55882202     0.73500
Zr961      Zr  0.45124396  0.00272010  0.55359650     2.54700
O962        O  0.39535991  0.00373721  0.54884176    -0.79700
O963        O  0.45777903  0.49967088  0.62504077    -0.93200
Zr964      Zr  0.45844311  0.00292915  0.93795306     2.64700
O965        O  0.40223226  0.00361358  0.93497492    -0.98100
O966        O  0.46974035  0.50266684  0.86981684    -0.80200
O967        O  0.45528355  0.97979674  0.49596009    -0.83500
O968        O  0.45560409  0.52469684  0.49656812    -2.18200
O969        O  0.06013791  0.54320120  0.57820147    -0.66900
O970        O  0.03566754  0.57081480  0.54058131    -0.51500
C971        C  0.05513925  0.56490472  0.56701592     0.71900
O972        O  0.07043001  0.96234776  0.93347150    -0.59800
O973        O  0.03915418  0.93428343  0.96139963    -0.51800
C974        C  0.06260809  0.94054499  0.94056879     0.73700
O975        O  0.06652965  0.54110066  0.92884972    -0.71200
O976        O  0.03768800  0.56983464  0.95885607    -0.49900
C977        C  0.05963137  0.56303427  0.93625416     0.75000
O978        O  0.06185292  0.96162640  0.58142225    -0.66500
O979        O  0.03484861  0.93322802  0.54853631    -0.53700
C980        C  0.05564039  0.93966017  0.57305361     0.73400
Zr981      Zr  0.04330588  0.50260118  0.56144351     2.77500
O982        O  0.09912942  0.50208588  0.56988009    -0.97300
O983        O  0.03443110  0.50234372  0.63143039    -0.78100
Zr984      Zr  0.04904335  0.50114095  0.94686812     2.70100
O985        O  0.10517780  0.50254472  0.94817222    -0.79400
O986        O  0.04734112  0.49836765  0.87629262    -0.98400
Zr987      Zr  0.00176139  0.95653080  0.00008023     2.21500
Zr988      Zr  0.50173724  0.54782575  0.50014176     2.11100
O989        O  0.04729755  0.52469987  0.00398775    -2.47100
O990        O  0.04764812  0.97976317  0.00482048    -0.79200
O991        O  0.49870812  0.52543682  0.55930199    -0.71400
O992        O  0.00528562  0.97875331  0.94096287    -2.32300
O993        O  0.99835521  0.97836250  0.56198168    -2.28500
O994        O  0.50759754  0.52560340  0.94265369    -0.73100
H995        H  0.43982591  0.53593014  0.99531716     0.78900
H996        H  0.00659544  0.96827668  0.91869580     0.80000
H997        H  0.06602972  0.53474749  0.50378636     0.82200
H998        H  0.99641248  0.96815254  0.58457270     0.79800
H999        H  0.47812827  0.98873999  0.86212221     0.42800
H1000       H  0.03727198  0.51338833  0.86782899     0.41800
H1001       H  0.11205681  0.99477152  0.97341292     0.41500
H1002       H  0.10715773  0.51327549  0.54988652     0.39400
H1003       H  0.05354149  0.49546851  0.64253266     0.42600
H1004       H  0.42713853  0.99654578  0.63012504     0.37300
H1005       H  0.39130277  0.00246680  0.52058462     0.43500
H1006       H  0.39838283  0.51658200  0.94529002     0.39900
H1007       H  0.10285628  0.51029577  0.59493714     0.44800
H1008       H  0.44917035  0.01874759  0.63235477     0.43500
H1009       H  0.39742949  0.00941525  0.90844352     0.43600
H1010       H  0.06912326  0.50015886  0.86800176     0.44000
O1011       O  0.32065010  0.79128869  0.81781354    -0.74900
O1012       O  0.28893172  0.81930946  0.79099793    -0.53800
C1013       C  0.31232080  0.81305398  0.81154962     0.78900
O1014       O  0.30802652  0.71167589  0.66707270    -0.59500
O1015       O  0.28362688  0.68342766  0.70386645    -0.52500
C1016       C  0.30237427  0.68978690  0.67655964     0.70900
O1017       O  0.30915077  0.79219019  0.67082344    -0.74000
O1018       O  0.28410263  0.81973064  0.70790319    -0.54600
C1019       C  0.30361998  0.81388652  0.68134919     0.76900
O1020       O  0.32048179  0.71075946  0.81706406    -0.59200
O1021       O  0.29023439  0.68259908  0.78794106    -0.52300
C1022       C  0.31321831  0.68893222  0.80931148     0.73500
Zr1023     Zr  0.30271370  0.75109450  0.80250753     2.54700
O1024       O  0.35845054  0.75140411  0.79329680    -0.79700
O1025       O  0.30860895  0.75102161  0.87294352    -0.93200
Zr1026     Zr  0.29227653  0.75175943  0.68735173     2.64700
O1027       O  0.34757637  0.75231997  0.67424980    -0.98100
O1028       O  0.27870422  0.75182320  0.61864888    -0.80200
O1029       O  0.29798779  0.77440197  0.74524454    -0.83500
O1030       O  0.29846538  0.72852797  0.74450337    -2.18200
O1031       O  0.19511745  0.71009214  0.83192013    -0.66900
O1032       O  0.22096407  0.68264032  0.79564193    -0.51500
C1033       C  0.20087128  0.68842441  0.82147719     0.71900
O1034       O  0.18167799  0.79172923  0.69038901    -0.59800
O1035       O  0.21510663  0.81963260  0.71450093    -0.51800
C1036       C  0.19064351  0.81339355  0.69598773     0.73700
O1037       O  0.18437873  0.71167118  0.68429466    -0.71200
O1038       O  0.21487874  0.68339866  0.71260092    -0.49900
C1039       C  0.19201416  0.68983213  0.69115804     0.75000
O1040       O  0.19341956  0.79081509  0.83185343    -0.66500
O1041       O  0.21904934  0.81920984  0.79674646    -0.53700
C1042       C  0.19895908  0.81273663  0.82233417     0.73400
Zr1043     Zr  0.21225874  0.75066377  0.81630285     2.77500
O1044       O  0.15795208  0.75115205  0.83505759    -0.97300
O1045       O  0.22720482  0.75040469  0.88457621    -0.78100
Zr1046     Zr  0.20189061  0.75167152  0.70099283     2.70100
O1047       O  0.14579575  0.75018093  0.70490032    -0.79400
O1048       O  0.20095136  0.75381572  0.63023240    -0.98400
Zr1049     Zr  0.25200932  0.79712652  0.75259547     2.21500
Zr1050     Zr  0.25255681  0.70531990  0.75082501     2.11100
O1051       O  0.20645062  0.72829178  0.75813627    -2.47100
O1052       O  0.20618669  0.77400393  0.75918801    -0.79200
O1053       O  0.25767696  0.72724175  0.81005009    -0.71400
O1054       O  0.24700111  0.77525062  0.69349797    -2.32300
O1055       O  0.25743334  0.77438757  0.81105456    -2.28500
O1056       O  0.24696938  0.72816078  0.69277016    -0.73100
H1057       H  0.31645999  0.71843673  0.74180577     0.78900
H1058       H  0.24501658  0.78586147  0.67143859     0.80000
H1059       H  0.18840128  0.71813747  0.76004808     0.82200
H1060       H  0.25927861  0.78464569  0.83351041     0.79800
H1061       H  0.28625152  0.76739028  0.60861048     0.42800
H1062       H  0.18015449  0.74791206  0.62305899     0.41800
H1063       H  0.14116575  0.75242939  0.73287541     0.41500
H1064       H  0.14747690  0.74085587  0.81571093     0.39400
H1065       H  0.22946003  0.73324578  0.89122042     0.42600
H1066       H  0.33106767  0.74892104  0.87711747     0.37300
H1067       H  0.36174945  0.76120884  0.76961651     0.43500
H1068       H  0.35581315  0.73775463  0.68693856     0.39900
H1069       H  0.15680487  0.74206187  0.85977632     0.44800
H1070       H  0.29933338  0.73570918  0.88161666     0.43500
H1071       H  0.34936831  0.74913424  0.64600404     0.43600
H1072       H  0.20045241  0.77111422  0.62404049     0.44000
C1073       C  0.10499381  0.59723210  0.64080252    -0.01600
C1074       C  0.11203472  0.61877825  0.62147329     0.07000
C1075       C  0.09930697  0.62322595  0.58477207    -0.07600
C1076       C  0.07997390  0.60642970  0.56690177     0.04400
C1077       C  0.07370360  0.58422963  0.58557023    -0.14800
C1078       C  0.08638186  0.58007020  0.62265851    -0.08100
C1079       C  0.13241341  0.63701753  0.63937227     0.05400
C1080       C  0.16375475  0.63173730  0.64500919    -0.09200
C1081       C  0.18370917  0.64848412  0.66200336     0.00400
C1082       C  0.17223772  0.67107060  0.67355252     0.00200
C1083       C  0.14077389  0.67619007  0.66784057    -0.12800
C1084       C  0.12090027  0.65941531  0.65109395     0.00700
C1085       C  0.21590757  0.64229313  0.66594865     0.40000
C1086       C  0.08858819  0.66530383  0.64739568     0.36600
C1087       C  0.11567272  0.59290449  0.67993904     0.36400
C1088       C  0.06729998  0.61270900  0.52944189     0.37100
N1089       N  0.24171093  0.63736300  0.66923210    -0.43700
N1090       N  0.06269078  0.67004148  0.64462164    -0.44100
N1091       N  0.05239257  0.61892916  0.00383848    -0.41500
N1092       N  0.12415575  0.58985336  0.71145296    -0.42900
H1093       H  0.08140288  0.56348684  0.63788571     0.13300
H1094       H  0.10450392  0.63996375  0.57006554     0.09700
H1095       H  0.17265081  0.61450638  0.63584980     0.10800
H1096       H  0.13148256  0.69329111  0.67702177     0.16600
C1097       C  0.14483342  0.65762669  0.89011897    -0.01600
C1098       C  0.14217798  0.63467424  0.87360634     0.07000
C1099       C  0.15961976  0.62900833  0.84053747    -0.07600
C1100       C  0.17945247  0.64582519  0.82353263     0.04400
C1101       C  0.18208658  0.66907860  0.83979339    -0.14800
C1102       C  0.16468605  0.67449960  0.87331066    -0.08100
C1103       C  0.12105669  0.61633699  0.88995149     0.05400
C1104       C  0.08915966  0.62073770  0.89039138    -0.09200
C1105       C  0.06846379  0.60364982  0.90502395     0.00400
C1106       C  0.07977393  0.58157201  0.91907002     0.00200
C1107       C  0.11165939  0.57716307  0.91817972    -0.12800
C1108       C  0.13228767  0.59432097  0.90404130     0.00700
C1109       C  0.03586657  0.60902082  0.90423373     0.40000
C1110       C  0.16491606  0.58912064  0.90523858     0.36600
C1111       C  0.12757007  0.66426433  0.92442854     0.36400
C1112       C  0.19592421  0.63866500  0.78889242     0.37100
N1113       N  0.00981170  0.61354376  0.90349528    -0.43700
N1114       N  0.19103101  0.58484751  0.90622635    -0.44100
N1115       N  0.20925204  0.63287617  0.76126761    -0.41500
N1116       N  0.11366414  0.66966645  0.95181303    -0.42900
H1117       H  0.16633025  0.69208601  0.88644222     0.13300
H1118       H  0.15734912  0.61139156  0.82760504     0.09700
H1119       H  0.08043358  0.63752916  0.87901865     0.10800
H1120       H  0.12061187  0.56041436  0.92946671     0.16600
C1121       C  0.12101103  0.91115319  0.63009935    -0.01600
C1122       C  0.11426489  0.88654266  0.62725522     0.07000
C1123       C  0.08723819  0.87929164  0.60822814    -0.07600
C1124       C  0.06736842  0.89602075  0.59111326     0.04400
C1125       C  0.07462749  0.92080048  0.59251943    -0.14800
C1126       C  0.10147909  0.92790581  0.61261788    -0.08100
C1127       C  0.13448756  0.86803040  0.64484376     0.05400
C1128       C  0.12210653  0.85285777  0.67352781    -0.09200
C1129       C  0.14013913  0.83497546  0.69060916     0.00400
C1130       C  0.17128907  0.83241340  0.67952133     0.00200
C1131       C  0.18372659  0.84743434  0.65077867    -0.12800
C1132       C  0.16544846  0.86489074  0.63286788     0.00700
C1133       C  0.12638893  0.81965024  0.71980194     0.40000
C1134       C  0.17853481  0.87863013  0.60122700     0.36600
C1135       C  0.14749906  0.91975156  0.65143902     0.36400
C1136       C  0.03953740  0.88698837  0.57328992     0.37100
N1137       N  0.11548363  0.80727208  0.74313022    -0.43700
N1138       N  0.18898410  0.88964284  0.57585113    -0.44100
N1139       N  0.05782229  0.88634137  0.00606380    -0.41500
N1140       N  0.16875787  0.92670302  0.66837444    -0.42900
H1141       H  0.10753795  0.94669722  0.61464477     0.13300
H1142       H  0.08167738  0.86037288  0.60667553     0.09700
H1143       H  0.09826511  0.85500716  0.68255556     0.10800
H1144       H  0.20747114  0.84501037  0.64149809     0.16600
C1145       C  0.41172672  0.62058133  0.60659390    -0.01600
C1146       C  0.37944478  0.61741282  0.60465370     0.07000
C1147       C  0.36746456  0.59733575  0.58558202    -0.07600
C1148       C  0.38715984  0.58015891  0.56938462     0.04400
C1149       C  0.41954929  0.58254922  0.57326140    -0.14800
C1150       C  0.43151286  0.60310621  0.59123352    -0.08100
C1151       C  0.35785542  0.63502834  0.62204809     0.05400
C1152       C  0.35129061  0.65613197  0.60170570    -0.09200
C1153       C  0.33229070  0.67378562  0.61798187     0.00400
C1154       C  0.31979991  0.67060776  0.65585451     0.00200
C1155       C  0.32559199  0.64891653  0.67543769    -0.12800
C1156       C  0.34425121  0.63118497  0.65879773     0.00700
C1157       C  0.32553935  0.69458437  0.59453715     0.40000
C1158       C  0.34957256  0.60934625  0.68024286     0.36600
C1159       C  0.42495345  0.64162744  0.62428526     0.36400
C1160       C  0.37356415  0.56109335  0.54682354     0.37100
N1161       N  0.32018544  0.71109580  0.57534663    -0.43700
N1162       N  0.35367278  0.59179566  0.69737633    -0.44100
N1163       N  0.36250284  0.54612669  0.52823201    -0.41500
N1164       N  0.43547306  0.65861149  0.63823353    -0.42900
H1165       H  0.45630442  0.60539487  0.59361940     0.13300
H1166       H  0.34265330  0.59526744  0.58292234     0.09700
H1167       H  0.36119451  0.65883822  0.57301165     0.10800
H1168       H  0.31620235  0.64598710  0.70433621     0.16600
C1169       C  0.40607680  0.88147708  0.91526906    -0.01600
C1170       C  0.39010351  0.88553895  0.88023710     0.07000
C1171       C  0.39251664  0.90779398  0.86179626    -0.07600
C1172       C  0.41082708  0.92599154  0.87741906     0.04400
C1173       C  0.42705623  0.92207498  0.91268898    -0.14800
C1174       C  0.42448780  0.89960136  0.93103860    -0.08100
C1175       C  0.37044930  0.86691987  0.86234320     0.05400
C1176       C  0.33861570  0.87099168  0.85933048    -0.09200
C1177       C  0.31912415  0.85384575  0.84271788     0.00400
C1178       C  0.33161389  0.83208003  0.82890885     0.00200
C1179       C  0.36358954  0.82823124  0.83163793    -0.12800
C1180       C  0.38304711  0.84552178  0.84770899     0.00700
C1181       C  0.28641625  0.85877920  0.84152837     0.40000
C1182       C  0.41592570  0.84125297  0.84761495     0.36600
C1183       C  0.40311496  0.85910284  0.93606101     0.36400
C1184       C  0.41285396  0.94814516  0.85582836     0.37100
N1185       N  0.26023276  0.86281985  0.84057474    -0.43700
N1186       N  0.44225739  0.83779520  0.84736740    -0.44100
N1187       N  0.41429721  0.96583132  0.83833547    -0.41500
N1188       N  0.40063928  0.84107981  0.95241947    -0.42900
H1189       H  0.43632525  0.89627889  0.95828072     0.13300
H1190       H  0.38020726  0.91085720  0.83478534     0.09700
H1191       H  0.32896323  0.88755098  0.87037028     0.10800
H1192       H  0.37354175  0.81181680  0.82045842     0.16600
C1193       C  0.38622128  0.65912926  0.84481637    -0.01600
C1194       C  0.37583793  0.63615048  0.85573401     0.07000
C1195       C  0.34441396  0.63042251  0.85142067    -0.07600
C1196       C  0.32341431  0.64718414  0.83650946     0.04400
C1197       C  0.33390443  0.67017045  0.82529403    -0.14800
C1198       C  0.36537862  0.67577276  0.82971939    -0.08100
C1199       C  0.39710309  0.61825949  0.87327212     0.05400
C1200       C  0.41226123  0.62387396  0.90813357    -0.09200
C1201       C  0.43156609  0.60727485  0.92650688     0.00400
C1202       C  0.43554351  0.58416532  0.91026139     0.00200
C1203       C  0.42080236  0.57885174  0.87485656    -0.12800
C1204       C  0.40198125  0.59564744  0.85624411     0.00700
C1205       C  0.44610229  0.61439111  0.96248283     0.40000
C1206       C  0.38851798  0.58939482  0.81924503     0.36600
C1207       C  0.41823704  0.66603104  0.84839530     0.36400
C1208       C  0.29112065  0.64078264  0.83527295     0.37100
N1209       N  0.44226029  0.61686767  0.49970052    -0.43700
N1210       N  0.37794445  0.58426647  0.78951613    -0.44100
N1211       N  0.26522235  0.63567193  0.83465066    -0.41500
N1212       N  0.44384111  0.67166298  0.85142970    -0.42900
H1213       H  0.37388914  0.69327156  0.82108540     0.13300
H1214       H  0.33615622  0.61295827  0.86060222     0.09700
H1215       H  0.40859855  0.64124506  0.92139069     0.10800
H1216       H  0.42395072  0.56145059  0.86151045     0.16600
C1217       C  0.15632646  0.87141995  0.83637281    -0.01600
C1218       C  0.14291075  0.86846072  0.87347614     0.07000
C1219       C  0.14826646  0.84725625  0.89418113    -0.07600
C1220       C  0.16676199  0.82905888  0.87859956     0.04400
C1221       C  0.18028700  0.83188016  0.84126180    -0.14800
C1222       C  0.17494681  0.85331936  0.82075181    -0.08100
C1223       C  0.12263712  0.88700834  0.89093012     0.05400
C1224       C  0.09088118  0.88242831  0.89426448    -0.09200
C1225       C  0.07084364  0.89945090  0.91039206     0.00400
C1226       C  0.08262050  0.92159723  0.92369126     0.00200
C1227       C  0.11452381  0.92604656  0.92035431    -0.12800
C1228       C  0.13451538  0.90894703  0.90452113     0.00700
C1229       C  0.03824896  0.89402971  0.91158607     0.40000
C1230       C  0.16722756  0.91399062  0.90373508     0.36600
C1231       C  0.15027007  0.89244677  0.81314509     0.36400
C1232       C  0.17193979  0.80801679  0.90212718     0.37100
N1233       N  0.01212428  0.88968093  0.91258238    -0.43700
N1234       N  0.19343391  0.91806681  0.90342588    -0.44100
N1235       N  0.17606082  0.79115985  0.92101498    -0.41500
N1236       N  0.14530785  0.90922748  0.79440823    -0.42900
H1237       H  0.18465628  0.85573677  0.79189379     0.13300
H1238       H  0.13798969  0.84496777  0.92276137     0.09700
H1239       H  0.08169033  0.86555643  0.88381605     0.10800
H1240       H  0.12401291  0.94282595  0.93078564     0.16600
C1241       C  0.41204996  0.88412455  0.60739717    -0.01600
C1242       C  0.37961495  0.88584266  0.60557409     0.07000
C1243       C  0.36612024  0.90545387  0.58670874    -0.07600
C1244       C  0.38448958  0.92340219  0.56998376     0.04400
C1245       C  0.41699678  0.92198331  0.57261290    -0.14800
C1246       C  0.43042343  0.90208378  0.59083588    -0.08100
C1247       C  0.35933884  0.86761735  0.62384288     0.05400
C1248       C  0.34389163  0.87336159  0.65839535    -0.09200
C1249       C  0.32525337  0.85648106  0.67746797     0.00400
C1250       C  0.32155309  0.83322206  0.66152887     0.00200
C1251       C  0.33668176  0.82785821  0.62626623    -0.12800
C1252       C  0.35546351  0.84473208  0.60754861     0.00700
C1253       C  0.31137214  0.86349644  0.71393828     0.40000
C1254       C  0.37049560  0.83815720  0.57161079     0.36600
C1255       C  0.42699267  0.86444017  0.62695940     0.36400
C1256       C  0.36947631  0.94239532  0.54871246     0.37100
N1257       N  0.30033636  0.86926757  0.74313487    -0.43700
N1258       N  0.38254219  0.83276621  0.54286698    -0.41700
N1259       N  0.35736380  0.95743190  0.53133596    -0.41500
N1260       N  0.43911877  0.84870143  0.64257811    -0.42900
H1261       H  0.45535565  0.90083883  0.59293140     0.13300
H1262       H  0.34117283  0.90661146  0.58481834     0.09700
H1263       H  0.34694732  0.89101526  0.67092640     0.10800
H1264       H  0.33406220  0.81031875  0.61321468     0.16600
O1265       O  0.93150993  0.46389530  0.06816559    -0.74900
O1266       O  0.96184742  0.43498822  0.04114444    -0.53800
C1267       C  0.93846311  0.44193352  0.06128927     0.78900
O1268       O  0.94575675  0.04148900  0.42065136    -0.59500
O1269       O  0.97128124  0.06977633  0.45580765    -0.52500
C1270       C  0.95110618  0.06335777  0.43034576     0.70900
O1271       O  0.94171982  0.46204373  0.42135048    -0.74000
O1272       O  0.96768892  0.43385237  0.45623215    -0.54600
C1273       C  0.94777535  0.44019250  0.43040106     0.76900
O1274       O  0.93361518  0.04354740  0.06511308    -0.59200
O1275       O  0.96517627  0.07158043  0.03739665    -0.52300
C1276       C  0.94145655  0.06532288  0.05764280     0.73500
Zr1277     Zr  0.95248708  0.50346992  0.05462643     2.54700
O1278       O  0.89647431  0.50493076  0.05518107    -0.79700
O1279       O  0.95475344  0.00338642  0.12387977    -0.93200
Zr1280     Zr  0.95855962  0.50237272  0.43800155     2.64700
O1281       O  0.90244451  0.50221224  0.43348168    -0.98100
O1282       O  0.97462799  0.00266090  0.36952079    -0.80200
O1283       O  0.95432394  0.48003054  0.99730944    -0.83500
O1284       O  0.95567208  0.02572991  0.99485059    -2.18200
O1285       O  0.56360972  0.04191208  0.07539123    -0.66900
O1286       O  0.53785045  0.07010688  0.04036405    -0.51500
C1287       C  0.55824009  0.06373552  0.06547159     0.71900
O1288       O  0.56823819  0.46078893  0.43333705    -0.59800
O1289       O  0.53661915  0.43285149  0.46104244    -0.51800
C1290       C  0.55998917  0.43901619  0.44024380     0.73700
O1291       O  0.57039134  0.04101113  0.43459745    -0.71200
O1292       O  0.53972289  0.06957230  0.46206607    -0.49900
C1293       C  0.56270206  0.06287360  0.44094429     0.75000
O1294       O  0.56036106  0.46211153  0.08441368    -0.66500
O1295       O  0.53451492  0.43432958  0.04856452    -0.53700
C1296       C  0.55394860  0.44032172  0.07516230     0.73400
Zr1297     Zr  0.54522871  0.00197478  0.05869247     2.77500
O1298       O  0.60129794  0.00047043  0.06315874    -0.97300
O1299       O  0.53859504  0.00201061  0.12900323    -0.78100
Zr1300     Zr  0.55193440  0.00129970  0.45145914     2.70100
O1301       O  0.60788556  0.00094922  0.45812505    -0.79400
O1302       O  0.55550437  0.99853220  0.38097360    -0.98400
Zr1303     Zr  0.50107462  0.45583273  0.50010114     2.21500
Zr1304     Zr  0.00194723  0.04872370  0.99910270     2.11100
O1305       O  0.54808287  0.02468223  0.50864614    -2.47100
O1306       O  0.54753236  0.47852127  0.50403831    -0.79200
O1307       O  0.99813423  0.02689608  0.05856276    -0.71400
O1308       O  0.50439400  0.47832201  0.44117360    -2.32300
O1309       O  0.50018828  0.47925495  0.06121591    -2.28500
O1310       O  0.00883266  0.02468478  0.44284613    -0.73100
H1311       H  0.93995127  0.03465711  0.49349207     0.78900
H1312       H  0.50550567  0.46791350  0.41881151     0.80000
H1313       H  0.56722507  0.03389414  0.00079777     0.82200
H1314       H  0.49853017  0.46897869  0.08375033     0.79800
H1315       H  0.98105792  0.49137074  0.36207780     0.42800
H1316       H  0.54546818  0.01328022  0.37128255     0.41800
H1317       H  0.61226131  0.50234570  0.47268523     0.41500
H1318       H  0.60875280  0.01165133  0.04279838     0.39400
H1319       H  0.53049470  0.01813926  0.13505734     0.42600
H1320       H  0.93310676  0.49995616  0.13364049     0.37300
H1321       H  0.89085394  0.50500249  0.02727105     0.43500
H1322       H  0.89883034  0.01086202  0.44882419     0.39900
H1323       H  0.60635142  0.00844962  0.08803807     0.44800
H1324       H  0.95760238  0.52059963  0.13242961     0.43500
H1325       H  0.89807540  0.50663609  0.40613861     0.43600
H1326       H  0.57771553  0.00085059  0.37521908     0.44000
O1327       O  0.82025988  0.29113741  0.31745244    -0.74900
O1328       O  0.78752325  0.31930267  0.29297306    -0.53800
C1329       C  0.81167065  0.31295127  0.31200906     0.78900
O1330       O  0.80949893  0.21355640  0.16757505    -0.59500
O1331       O  0.78528042  0.18469367  0.20309946    -0.52500
C1332       C  0.80435934  0.19153958  0.17655453     0.70900
O1333       O  0.80992341  0.29363290  0.17398037    -0.74000
O1334       O  0.78322580  0.32061835  0.21027421    -0.54600
C1335       C  0.80355192  0.31515937  0.18443155     0.76900
O1336       O  0.81914258  0.21027165  0.31840510    -0.59200
O1337       O  0.78968732  0.18264713  0.28675454    -0.52300
C1338       C  0.81200393  0.18854677  0.30944926     0.73500
Zr1339     Zr  0.80086578  0.25087047  0.30484959     2.54700
O1340       O  0.85701920  0.24947625  0.30524674    -0.79700
O1341       O  0.79843658  0.25201199  0.37560762    -0.93200
Zr1342     Zr  0.79350221  0.25315371  0.18930529     2.64700
O1343       O  0.84956214  0.25366612  0.18398785    -0.98100
O1344       O  0.78633855  0.25507101  0.11912972    -0.80200
O1345       O  0.79721079  0.27495401  0.24817563    -0.83500
O1346       O  0.79853422  0.22920380  0.24578161    -2.18200
O1347       O  0.69558904  0.20854776  0.32989380    -0.66900
O1348       O  0.72143945  0.18168594  0.29247017    -0.51500
C1349       C  0.70163541  0.18704345  0.31889602     0.71900
O1350       O  0.68189408  0.29264752  0.19002136    -0.59800
O1351       O  0.71322392  0.32061450  0.21796759    -0.51800
C1352       C  0.68922162  0.31443170  0.19841744     0.73700
O1353       O  0.68629416  0.21179900  0.18071103    -0.71200
O1354       O  0.71659741  0.18364316  0.20969944    -0.49900
C1355       C  0.69409605  0.18995675  0.18769441     0.75000
O1356       O  0.69114439  0.28898655  0.33266243    -0.66500
O1357       O  0.71746997  0.31797915  0.29982659    -0.53700
C1358       C  0.69698278  0.31105749  0.32467930     0.73400
Zr1359     Zr  0.71025414  0.24957989  0.31406523     2.77500
O1360       O  0.65471510  0.24772254  0.32506297    -0.97300
O1361       O  0.72142954  0.24916378  0.38343304    -0.78100
Zr1362     Zr  0.70278358  0.25218544  0.19829447     2.70100
O1363       O  0.64671375  0.24979861  0.19767641    -0.79400
O1364       O  0.70446052  0.25509815  0.12763327    -0.98400
Zr1365     Zr  0.75079979  0.29736677  0.25395388     2.21500
Zr1366     Zr  0.75283757  0.20566868  0.24920121     2.11100
O1367       O  0.70626519  0.22807737  0.25495372    -2.47100
O1368       O  0.70527236  0.27366476  0.25755531    -0.79200
O1369       O  0.75606386  0.22658514  0.30936385    -0.71400
O1370       O  0.74767630  0.27626815  0.19382917    -2.32300
O1371       O  0.75515550  0.27381518  0.31163399    -2.28500
O1372       O  0.74843850  0.22912367  0.19153520    -0.73100
H1373       H  0.81668665  0.21924950  0.24345674     0.78900
H1374       H  0.74605397  0.28720993  0.17214436     0.80000
H1375       H  0.68844455  0.21763817  0.25616449     0.82200
H1376       H  0.75634726  0.28382553  0.33446292     0.79800
H1377       H  0.77529400  0.27030398  0.11450604     0.42800
H1378       H  0.71655264  0.24097352  0.11929759     0.41800
H1379       H  0.64087243  0.24915396  0.22552292     0.41500
H1380       H  0.64701741  0.23592612  0.30590452     0.39400
H1381       H  0.70309618  0.24153667  0.39547795     0.42600
H1382       H  0.81941797  0.25698748  0.38370899     0.37300
H1383       H  0.86310891  0.25489502  0.27887643     0.43500
H1384       H  0.85655105  0.23936318  0.19852806     0.39900
H1385       H  0.65220304  0.23973681  0.35061541     0.44800
H1386       H  0.79686040  0.23504238  0.38367379     0.43500
H1387       H  0.85382185  0.24987710  0.15636644     0.43600
H1388       H  0.68309035  0.25150119  0.11930206     0.44000
C1389       C  0.60992815  0.09452894  0.13898376    -0.01600
C1390       C  0.61581943  0.11673684  0.12091813     0.07000
C1391       C  0.60268900  0.12160065  0.08454217    -0.07600
C1392       C  0.58356941  0.10492285  0.06615413     0.04400
C1393       C  0.57741074  0.08258552  0.08418524    -0.14800
C1394       C  0.59098422  0.07770256  0.12054504    -0.08100
C1395       C  0.63559642  0.13526293  0.13917982     0.05400
C1396       C  0.66702583  0.13053006  0.14506623    -0.09200
C1397       C  0.68676918  0.14811104  0.16007379     0.00400
C1398       C  0.67484671  0.17084647  0.17021726     0.00200
C1399       C  0.64332097  0.17545323  0.16422581    -0.12800
C1400       C  0.62380206  0.15801375  0.14864592     0.00700
C1401       C  0.71929049  0.14265647  0.16262309     0.40000
C1402       C  0.59169953  0.16385756  0.14263024     0.36600
C1403       C  0.62234460  0.08881961  0.17683791     0.36400
C1404       C  0.57157832  0.11113425  0.02832324     0.37100
N1405       N  0.74531437  0.13813012  0.16434931    -0.43700
N1406       N  0.56601784  0.16849476  0.13738733    -0.44100
N1407       N  0.55371490  0.11831136  0.50763565    -0.41500
N1408       N  0.63216572  0.08413851  0.20719220    -0.42900
H1409       H  0.58656954  0.06073631  0.13491713     0.13300
H1410       H  0.60758008  0.13855301  0.07033299     0.09700
H1411       H  0.67630184  0.11323209  0.13688852     0.10800
H1412       H  0.63375252  0.19272749  0.17198924     0.16600
C1413       C  0.64816537  0.15562527  0.38968275    -0.01600
C1414       C  0.64366841  0.13328807  0.37183517     0.07000
C1415       C  0.65950325  0.12791189  0.33737775    -0.07600
C1416       C  0.67925267  0.14470416  0.32000514     0.04400
C1417       C  0.68347183  0.16747619  0.33748524    -0.14800
C1418       C  0.66794581  0.17241142  0.37261781    -0.08100
C1419       C  0.62291004  0.11513714  0.38923791     0.05400
C1420       C  0.59091218  0.11909958  0.38930557    -0.09200
C1421       C  0.57069095  0.10240488  0.40611533     0.00400
C1422       C  0.58263724  0.08140083  0.42326429     0.00200
C1423       C  0.61468204  0.07755201  0.42305342    -0.12800
C1424       C  0.63479902  0.09420198  0.40631044     0.00700
C1425       C  0.53786982  0.10668342  0.40379639     0.40000
C1426       C  0.66759846  0.08970554  0.40774568     0.36600
C1427       C  0.63293987  0.16154335  0.42581075     0.36400
C1428       C  0.69382375  0.13814505  0.28374126     0.37100
N1429       N  0.51155287  0.10999702  0.40181653    -0.43700
N1430       N  0.69388157  0.08611544  0.40889845    -0.44100
N1431       N  0.70555618  0.13273860  0.25479731    -0.41500
N1432       N  0.62064769  0.16612410  0.45476776    -0.42900
H1433       H  0.67098337  0.18957220  0.38680386     0.13300
H1434       H  0.65606468  0.11060485  0.32377408     0.09700
H1435       H  0.58177023  0.13518379  0.37592973     0.10800
H1436       H  0.62409624  0.06155788  0.43642739     0.16600
C1437       C  0.60272950  0.40991452  0.15252468    -0.01600
C1438       C  0.60800237  0.38721401  0.13616329     0.07000
C1439       C  0.59356088  0.38118892  0.10110331    -0.07600
C1440       C  0.57506677  0.39773574  0.08125196     0.04400
C1441       C  0.57076571  0.42106209  0.09659829    -0.14800
C1442       C  0.58440821  0.42659311  0.13272568    -0.08100
C1443       C  0.62915176  0.36959523  0.15439520     0.05400
C1444       C  0.61664988  0.34925156  0.17237356    -0.09200
C1445       C  0.63585032  0.33144888  0.18770560     0.00400
C1446       C  0.66829771  0.33367201  0.18466677     0.00200
C1447       C  0.68080692  0.35445992  0.16766777    -0.12800
C1448       C  0.66150997  0.37228680  0.15233799     0.00700
C1449       C  0.62165741  0.31153932  0.20776918     0.40000
C1450       C  0.67524837  0.39274100  0.13318978     0.36600
C1451       C  0.61567759  0.41636952  0.18973526     0.36400
C1452       C  0.56204879  0.39035352  0.04453521     0.37100
N1453       N  0.61022957  0.29571149  0.22413778    -0.43700
N1454       N  0.68598564  0.40917426  0.11766338    -0.44100
N1455       N  0.55067246  0.38326277  0.50890595    -0.41500
N1456       N  0.62589971  0.42150458  0.21965907    -0.42900
H1457       H  0.58097696  0.44410388  0.14556211     0.13300
H1458       H  0.59741557  0.36360421  0.08869416     0.09700
H1459       H  0.59177785  0.34728324  0.17436107     0.10800
H1460       H  0.70565444  0.35643832  0.16529714     0.16600
C1461       C  0.91600934  0.12138506  0.11030706    -0.01600
C1462       C  0.88357979  0.11943854  0.10818200     0.07000
C1463       C  0.87034109  0.10030824  0.08794151    -0.07600
C1464       C  0.88886046  0.08295155  0.07031550     0.04400
C1465       C  0.92135608  0.08435586  0.07343010    -0.14800
C1466       C  0.93464387  0.10388087  0.09292587    -0.08100
C1467       C  0.86288419  0.13757691  0.12559192     0.05400
C1468       C  0.85955516  0.15968804  0.10688474    -0.09200
C1469       C  0.83963312  0.17717384  0.12168939     0.00400
C1470       C  0.82299029  0.17279113  0.15661775     0.00200
C1471       C  0.82593761  0.15024018  0.17462029    -0.12800
C1472       C  0.84544803  0.13268527  0.15930511     0.00700
C1473       C  0.83632184  0.19904495  0.09964626     0.40000
C1474       C  0.84747871  0.10990001  0.17901010     0.36600
C1475       C  0.93055772  0.14088767  0.13082826     0.36400
C1476       C  0.87392067  0.06469236  0.04737139     0.37100
N1477       N  0.83368947  0.21648027  0.08173750    -0.43700
N1478       N  0.84885647  0.09164678  0.19486737    -0.44100
N1479       N  0.86168960  0.05035620  0.02863469    -0.41500
N1480       N  0.94223115  0.15651200  0.14729074    -0.42900
H1481       H  0.95955695  0.10518092  0.09527933     0.13300
H1482       H  0.84541702  0.09916197  0.08544679     0.09700
H1483       H  0.87235728  0.16316325  0.08029443     0.10800
H1484       H  0.81347188  0.14636466  0.20130060     0.16600
C1485       C  0.90681701  0.38110299  0.41275481    -0.01600
C1486       C  0.89214848  0.38520747  0.37682996     0.07000
C1487       C  0.89679907  0.40697176  0.35753211    -0.07600
C1488       C  0.91562883  0.42476968  0.37359423     0.04400
C1489       C  0.92979839  0.42109161  0.41034164    -0.14800
C1490       C  0.92540636  0.39894779  0.42920264    -0.08100
C1491       C  0.87176394  0.36698562  0.35895074     0.05400
C1492       C  0.83978592  0.37087933  0.35845080    -0.09200
C1493       C  0.81963417  0.35353861  0.34352265     0.00400
C1494       C  0.83164508  0.33198569  0.32821505     0.00200
C1495       C  0.86374085  0.32836838  0.32831109    -0.12800
C1496       C  0.88376633  0.34563303  0.34341556     0.00700
C1497       C  0.78679682  0.35774737  0.34627876     0.40000
C1498       C  0.91656893  0.34111984  0.34259222     0.36600
C1499       C  0.90252901  0.35884618  0.43350267     0.36400
C1500       C  0.92051695  0.44622175  0.35090008     0.37100
N1501       N  0.76047605  0.36099432  0.34864218    -0.43700
N1502       N  0.94286156  0.33750918  0.34211989    -0.44100
N1503       N  0.92431203  0.46328183  0.33234689    -0.41500
N1504       N  0.89904060  0.34085906  0.44967408    -0.42900
H1505       H  0.93590617  0.39571161  0.45732919     0.13300
H1506       H  0.88584954  0.40995920  0.32958454     0.09700
H1507       H  0.83053645  0.38725930  0.37066645     0.10800
H1508       H  0.87327569  0.31203022  0.31629510     0.16600
C1509       C  0.88285232  0.15644482  0.34695489    -0.01600
C1510       C  0.87113812  0.13371982  0.35714866     0.07000
C1511       C  0.83967519  0.12884736  0.35133277    -0.07600
C1512       C  0.81989037  0.14628707  0.33580448     0.04400
C1513       C  0.83161912  0.16918072  0.32581870    -0.14800
C1514       C  0.86317577  0.17387076  0.33158826    -0.08100
C1515       C  0.89128338  0.11535046  0.37548609     0.05400
C1516       C  0.90478550  0.12043662  0.41156384    -0.09200
C1517       C  0.92470668  0.10416457  0.42963375     0.00400
C1518       C  0.93164559  0.08206778  0.41144373     0.00200
C1519       C  0.91771045  0.07695727  0.37534572    -0.12800
C1520       C  0.89771514  0.09329916  0.35740499     0.00700
C1521       C  0.93644563  0.11046994  0.46750133     0.40000
C1522       C  0.88462441  0.08727414  0.32007590     0.36600
C1523       C  0.91516863  0.16216586  0.35151496     0.36400
C1524       C  0.78750554  0.14052294  0.33230513     0.37100
N1525       N  0.95515696  0.12095154  0.98737515    -0.43700
N1526       N  0.87412028  0.08244007  0.29017051    -0.44100
N1527       N  0.76156154  0.13582194  0.32972846    -0.41500
N1528       N  0.94107929  0.16664500  0.35531548    -0.42900
H1529       H  0.87265545  0.19119958  0.32369479     0.13300
H1530       H  0.83044790  0.11151584  0.35967984     0.09700
H1531       H  0.89952304  0.13725289  0.42582963     0.10800
H1532       H  0.92246318  0.06011282  0.36092274     0.16600
C1533       C  0.65805676  0.37083618  0.34272542    -0.01600
C1534       C  0.63990553  0.36618327  0.37596553     0.07000
C1535       C  0.64108010  0.34351613  0.39327594    -0.07600
C1536       C  0.65985938  0.32541717  0.37797872     0.04400
C1537       C  0.67809818  0.32989467  0.34428628    -0.14800
C1538       C  0.67704887  0.35290315  0.32746704    -0.08100
C1539       C  0.61945356  0.38470057  0.39309488     0.05400
C1540       C  0.58731670  0.38120058  0.39274589    -0.09200
C1541       C  0.56732451  0.39854809  0.40806259     0.00400
C1542       C  0.57960481  0.41987901  0.42384564     0.00200
C1543       C  0.61172331  0.42314759  0.42447213    -0.12800
C1544       C  0.63162332  0.40571587  0.40977936     0.00700
C1545       C  0.53440894  0.39446412  0.40602883     0.40000
C1546       C  0.66447693  0.40954796  0.41313898     0.36600
C1547       C  0.65663687  0.39360969  0.32287867     0.36400
C1548       C  0.65981081  0.30270364  0.39809737     0.37100
N1549       N  0.50800296  0.39137276  0.40458208    -0.43700
N1550       N  0.69078487  0.41270852  0.41594400    -0.44100
N1551       N  0.65929649  0.28466898  0.41470965    -0.41500
N1552       N  0.65540963  0.41188960  0.30708704    -0.42900
H1553       H  0.69041566  0.35681440  0.30150444     0.13300
H1554       H  0.62724059  0.33998020  0.41901274     0.09700
H1555       H  0.57786469  0.36501326  0.38005813     0.10800
H1556       H  0.62138397  0.43924640  0.43722117     0.16600
C1557       C  0.91281477  0.38493711  0.11105203    -0.01600
C1558       C  0.88043545  0.38766205  0.11185156     0.07000
C1559       C  0.86713946  0.40819267  0.09560013    -0.07600
C1560       C  0.88555867  0.42589640  0.07842717     0.04400
C1561       C  0.91803948  0.42335841  0.07802178    -0.14800
C1562       C  0.93128920  0.40271031  0.09412965    -0.08100
C1563       C  0.85991343  0.36930888  0.12932843     0.05400
C1564       C  0.84308038  0.37504808  0.16288794    -0.09200
C1565       C  0.82421628  0.35800390  0.18119333     0.00400
C1566       C  0.82150488  0.33468985  0.16528097     0.00200
C1567       C  0.83781248  0.32938353  0.13082653    -0.12800
C1568       C  0.85690621  0.34635460  0.11297918     0.00700
C1569       C  0.80924618  0.36479355  0.21708750     0.40000
C1570       C  0.87327852  0.33977714  0.07795626     0.36600
C1571       C  0.92762721  0.36421443  0.12775931     0.36400
C1572       C  0.87037733  0.44570193  0.05944946     0.37100
N1573       N  0.79732694  0.37021474  0.24591080    -0.43700
N1574       N  0.88667479  0.33447525  0.05012886    -0.41700
N1575       N  0.85799768  0.46134803  0.04390558    -0.41500
N1576       N  0.93952189  0.34751898  0.14083179    -0.42900
H1577       H  0.95617975  0.40061077  0.09398225     0.13300
H1578       H  0.84222295  0.41014169  0.09568837     0.09700
H1579       H  0.84535269  0.39277672  0.17539489     0.10800
H1580       H  0.83596090  0.31178251  0.11778530     0.16600
O1581       O  0.93071687  0.46359403  0.56421768    -0.74900
O1582       O  0.96138799  0.43468211  0.53789805    -0.53800
C1583       C  0.93744783  0.44160223  0.55702493     0.78900
O1584       O  0.94406497  0.04286508  0.91923291    -0.59500
O1585       O  0.97054909  0.07089343  0.95365267    -0.52500
C1586       C  0.95048082  0.06471382  0.92809585     0.70900
O1587       O  0.94021156  0.46236049  0.92346162    -0.74000
O1588       O  0.96593165  0.43417182  0.95875134    -0.54600
C1589       C  0.94593371  0.44054253  0.93310856     0.76900
O1590       O  0.93364558  0.04247269  0.56557490    -0.59200
O1591       O  0.96579371  0.07034791  0.53846035    -0.52300
C1592       C  0.94145853  0.06421419  0.55784896     0.73500
Zr1593     Zr  0.95253563  0.50334062  0.55341771     2.54700
O1594       O  0.89664515  0.50705242  0.55315793    -0.79700
O1595       O  0.95549428  0.00268557  0.62508168    -0.93200
Zr1596     Zr  0.95862243  0.50249548  0.93882045     2.64700
O1597       O  0.90323989  0.50316615  0.92668787    -0.98100
O1598       O  0.97025593  0.00094148  0.86806098    -0.80200
O1599       O  0.95470498  0.47976096  0.49627231    -0.83500
O1600       O  0.95796883  0.02462236  0.49595270    -2.18200
O1601       O  0.55940104  0.04242285  0.58281871    -0.66900
O1602       O  0.53385738  0.07038990  0.54708888    -0.51500
C1603       C  0.55376360  0.06423563  0.57284581     0.71900
O1604       O  0.57031775  0.46108253  0.93464831    -0.59800
O1605       O  0.53919235  0.43342261  0.96417131    -0.51800
C1606       C  0.56223089  0.43942549  0.94252927     0.73700
O1607       O  0.56823375  0.04051365  0.92608224    -0.71200
O1608       O  0.54017042  0.06936443  0.95696558    -0.49900
C1609       C  0.56194243  0.06247310  0.93417095     0.75000
O1610       O  0.56107477  0.46112906  0.57748826    -0.66500
O1611       O  0.53379973  0.43318038  0.54381312    -0.53700
C1612       C  0.55451686  0.43929756  0.56865179     0.73400
Zr1613     Zr  0.54166906  0.00203093  0.56653574     2.77500
O1614       O  0.59609571  0.00052545  0.58439431    -0.97300
O1615       O  0.52765523  0.00230858  0.63517656    -0.78100
Zr1616     Zr  0.54927514  0.00065701  0.94283753     2.70100
O1617       O  0.60525991  0.00199744  0.93779333    -0.79400
O1618       O  0.54486107  0.99682396  0.87249498    -0.98400
Zr1619     Zr  0.50284964  0.45651061  0.00259330     2.21500
Zr1620     Zr  0.00396378  0.04774154  0.50093911     2.11100
O1621       O  0.54876485  0.02413655  0.00015748    -2.47100
O1622       O  0.54940362  0.47891022  0.00626118    -0.79200
O1623       O  0.99900843  0.02600034  0.56051080    -0.71400
O1624       O  0.50663182  0.47856231  0.94328624    -2.32300
O1625       O  0.49842078  0.47799293  0.55930309    -2.28500
O1626       O  0.00555853  0.02599666  0.94068157    -0.73100
H1627       H  0.93766828  0.03581680  0.99281443     0.78900
H1628       H  0.50769741  0.46791629  0.92122319     0.80000
H1629       H  0.56630803  0.03464410  0.51054009     0.82200
H1630       H  0.49711389  0.46745789  0.58155837     0.79800
H1631       H  0.98012441  0.48659423  0.86462937     0.42800
H1632       H  0.53641350  0.01238044  0.86374820     0.41800
H1633       H  0.61272503  0.51139340  0.97748782     0.41500
H1634       H  0.60637900  0.01246837  0.56740809     0.39400
H1635       H  0.54603581  0.00887797  0.64853273     0.42600
H1636       H  0.93084480  0.50463509  0.63162726     0.37300
H1637       H  0.89121284  0.50793573  0.52522828     0.43500
H1638       H  0.89608908  0.01376180  0.94630885     0.39900
H1639       H  0.59716124  0.00746481  0.61083773     0.44800
H1640       H  0.96367570  0.51640663  0.63224271     0.43500
H1641       H  0.90134778  0.50765939  0.89891212     0.43600
H1642       H  0.56646237  0.99684583  0.86302832     0.44000
O1643       O  0.81940035  0.29208050  0.81658334    -0.74900
O1644       O  0.78773454  0.32021323  0.78994689    -0.53800
C1645       C  0.81116261  0.31388751  0.81051897     0.78900
O1646       O  0.80872599  0.21322720  0.66533162    -0.59500
O1647       O  0.78426451  0.18467227  0.70145468    -0.52500
C1648       C  0.80332148  0.19126134  0.67467605     0.70900
O1649       O  0.80833065  0.29382407  0.66962359    -0.74000
O1650       O  0.78156590  0.32103853  0.70550515    -0.54600
C1651       C  0.80159843  0.31542289  0.67942972     0.76900
O1652       O  0.82081877  0.21175141  0.81412610    -0.59200
O1653       O  0.79071329  0.18378891  0.78429356    -0.52300
C1654       C  0.81379182  0.18997908  0.80554095     0.73500
Zr1655     Zr  0.80133219  0.25194197  0.80119844     2.54700
O1656       O  0.85731273  0.25199636  0.79531875    -0.79700
O1657       O  0.80354961  0.25162329  0.87199866    -0.93200
Zr1658     Zr  0.79224475  0.25323214  0.68564779     2.64700
O1659       O  0.84757288  0.25424612  0.67302543    -0.98100
O1660       O  0.78045551  0.25397525  0.61642665    -0.80200
O1661       O  0.79702137  0.27559166  0.74411884    -0.83500
O1662       O  0.79810707  0.22986689  0.74265245    -2.18200
O1663       O  0.69461703  0.20996440  0.82840410    -0.66900
O1664       O  0.72200810  0.18287404  0.79310304    -0.51500
C1665       C  0.70150087  0.18837779  0.81860857     0.71900
O1666       O  0.68016555  0.29223681  0.68928102    -0.59800
O1667       O  0.71259925  0.32045958  0.71450489    -0.51800
C1668       C  0.68812119  0.31405143  0.69611280     0.73700
O1669       O  0.68440892  0.21181552  0.68213099    -0.71200
O1670       O  0.71558452  0.18377513  0.70996934    -0.49900
C1671       C  0.69232395  0.19003814  0.68918927     0.75000
O1672       O  0.69248658  0.29049839  0.83060654    -0.66500
O1673       O  0.71740240  0.31938346  0.79594234    -0.53700
C1674       C  0.69758951  0.31252962  0.82166477     0.73400
Zr1675     Zr  0.71057254  0.25073371  0.81252292     2.77500
O1676       O  0.65502031  0.25170670  0.82360913    -0.97300
O1677       O  0.72096147  0.24951167  0.88207690    -0.78100
Zr1678     Zr  0.70195130  0.25222867  0.69705490     2.70100
O1679       O  0.64591324  0.25029054  0.69321293    -0.79400
O1680       O  0.70438249  0.25456583  0.62639061    -0.98400
Zr1681     Zr  0.75068234  0.29803842  0.75096981     2.21500
Zr1682     Zr  0.75256112  0.20622417  0.74788825     2.11100
O1683       O  0.70590264  0.22859747  0.75413465    -2.47100
O1684       O  0.70518595  0.27431826  0.75566641    -0.79200
O1685       O  0.75648500  0.22778632  0.80745362    -0.71400
O1686       O  0.74662455  0.27644549  0.69127722    -2.32300
O1687       O  0.75559343  0.27481301  0.80891607    -2.28500
O1688       O  0.74738590  0.22905431  0.68965052    -0.73100
H1689       H  0.81629649  0.21998506  0.74002122     0.78900
H1690       H  0.74458690  0.28723248  0.66945419     0.80000
H1691       H  0.68804904  0.21822868  0.75591168     0.82200
H1692       H  0.75702983  0.28490899  0.83161136     0.79800
H1693       H  0.77137808  0.26995751  0.61167549     0.42800
H1694       H  0.71065807  0.23831957  0.61807582     0.41800
H1695       H  0.63924984  0.24562215  0.71973510     0.41500
H1696       H  0.64650902  0.23905320  0.80656479     0.39400
H1697       H  0.72702563  0.23273675  0.88732784     0.42600
H1698       H  0.82450838  0.24564452  0.87808499     0.37300
H1699       H  0.86138594  0.25971358  0.76986024     0.43500
H1700       H  0.85626844  0.24141878  0.68958923     0.39900
H1701       H  0.65219931  0.24548924  0.85037108     0.44800
H1702       H  0.78958828  0.23844027  0.87992383     0.43500
H1703       H  0.84986146  0.24825242  0.64607617     0.43600
H1704       H  0.68256289  0.25589201  0.61818590     0.44000
C1705       C  0.60521944  0.09538988  0.64608236    -0.01600
C1706       C  0.61042941  0.11770954  0.62819732     0.07000
C1707       C  0.59608381  0.12293687  0.59275240    -0.07600
C1708       C  0.57703552  0.10616960  0.57450853     0.04400
C1709       C  0.57216198  0.08340087  0.59190292    -0.14800
C1710       C  0.58639185  0.07843787  0.62782511    -0.08100
C1711       C  0.63116726  0.13585382  0.64544604     0.05400
C1712       C  0.66300949  0.13140052  0.64663242    -0.09200
C1713       C  0.68358618  0.14883481  0.66022392     0.00400
C1714       C  0.67211527  0.17103637  0.67353784     0.00200
C1715       C  0.64016697  0.17531894  0.67241448    -0.12800
C1716       C  0.61975004  0.15803236  0.65835694     0.00700
C1717       C  0.71628661  0.14399053  0.65792933     0.40000
C1718       C  0.58714953  0.16337289  0.65753278     0.36600
C1719       C  0.61819294  0.08977735  0.68366016     0.36400
C1720       C  0.56402431  0.11277139  0.53734542     0.37100
N1721       N  0.74245865  0.14006956  0.65571470    -0.43700
N1722       N  0.56101823  0.16759419  0.65662530    -0.44100
N1723       N  0.56197915  0.11631339  0.99808435    -0.41500
N1724       N  0.62834432  0.08530154  0.71391843    -0.42900
H1725       H  0.58272405  0.06127553  0.64189993     0.13300
H1726       H  0.60020021  0.14015328  0.57899605     0.09700
H1727       H  0.67183503  0.11450301  0.63586318     0.10800
H1728       H  0.63104035  0.19221541  0.68279083     0.16600
C1729       C  0.64889349  0.15670179  0.89021410    -0.01600
C1730       C  0.64510879  0.13409844  0.87288301     0.07000
C1731       C  0.66108574  0.12877178  0.83852136    -0.07600
C1732       C  0.68011712  0.14580606  0.82061180     0.04400
C1733       C  0.68372290  0.16876710  0.83761125    -0.14800
C1734       C  0.66816848  0.17370501  0.87271383    -0.08100
C1735       C  0.62393414  0.11589078  0.88939666     0.05400
C1736       C  0.59206243  0.12032071  0.88950579    -0.09200
C1737       C  0.57126489  0.10318219  0.90372719     0.00400
C1738       C  0.58242253  0.08098792  0.91749706     0.00200
C1739       C  0.61434135  0.07662596  0.91721145    -0.12800
C1740       C  0.63509436  0.09395543  0.90379245     0.00700
C1741       C  0.53869473  0.10865881  0.90309251     0.40000
C1742       C  0.66778673  0.08928708  0.90660437     0.36600
C1743       C  0.63334938  0.16281499  0.92603557     0.36400
C1744       C  0.69409682  0.13937513  0.78391427     0.37100
N1745       N  0.51263862  0.11318539  0.90265701    -0.43700
N1746       N  0.69399761  0.08566941  0.90916774    -0.44100
N1747       N  0.70512925  0.13397853  0.75452943    -0.41500
N1748       N  0.62088425  0.16776946  0.95471217    -0.42900
H1749       H  0.67072565  0.19105338  0.88644657     0.13300
H1750       H  0.65797015  0.11137871  0.82507645     0.09700
H1751       H  0.58345052  0.13717762  0.87824848     0.10800
H1752       H  0.62318407  0.05987354  0.92860882     0.16600
C1753       C  0.60560089  0.40935874  0.64369489    -0.01600
C1754       C  0.60932853  0.38620594  0.62841137     0.07000
C1755       C  0.59416661  0.38000863  0.59387502    -0.07600
C1756       C  0.57582595  0.39668734  0.57400027     0.04400
C1757       C  0.57235737  0.42019274  0.58895460    -0.14800
C1758       C  0.58727752  0.42602113  0.62407243    -0.08100
C1759       C  0.62982918  0.36843252  0.64722915     0.05400
C1760       C  0.61678323  0.35007807  0.66977845    -0.09200
C1761       C  0.63545217  0.33248275  0.68676537     0.00400
C1762       C  0.66776268  0.33309789  0.68101668     0.00200
C1763       C  0.68081803  0.35184938  0.65924721    -0.12800
C1764       C  0.66211949  0.36940683  0.64227253     0.00700
C1765       C  0.62104461  0.31443289  0.71089670     0.40000
C1766       C  0.67639413  0.38804833  0.61927846     0.36600
C1767       C  0.62043082  0.41652239  0.67940960     0.36400
C1768       C  0.56188089  0.38927103  0.53783052     0.37100
N1769       N  0.60949496  0.30005202  0.73038684    -0.43700
N1770       N  0.68766539  0.40308376  0.60087883    -0.44100
N1771       N  0.55166713  0.38424918  0.01517911    -0.41500
N1772       N  0.63219012  0.42251240  0.70798370    -0.42900
H1773       H  0.58476084  0.44376809  0.63638121     0.13300
H1774       H  0.59719100  0.36218156  0.58202425     0.09700
H1775       H  0.59197672  0.34952051  0.67406449     0.10800
H1776       H  0.70559629  0.35243459  0.65467733     0.16600
C1777       C  0.91345116  0.12140409  0.60580123    -0.01600
C1778       C  0.88111565  0.11855327  0.60442498     0.07000
C1779       C  0.86865821  0.09848553  0.58578958    -0.07600
C1780       C  0.88793007  0.08106580  0.56935289     0.04400
C1781       C  0.92044612  0.08330701  0.57217328    -0.14800
C1782       C  0.93283006  0.10384575  0.58979799    -0.08100
C1783       C  0.85995210  0.13651498  0.62187315     0.05400
C1784       C  0.85271400  0.15720473  0.60072711    -0.09200
C1785       C  0.83360265  0.17495509  0.61659656     0.00400
C1786       C  0.82148545  0.17221977  0.65471507     0.00200
C1787       C  0.82832001  0.15110733  0.67538277    -0.12800
C1788       C  0.84728455  0.13337402  0.65932347     0.00700
C1789       C  0.82630177  0.19535307  0.59250439     0.40000
C1790       C  0.85387669  0.11229081  0.68211781     0.36600
C1791       C  0.92714394  0.14203080  0.62419397     0.36400
C1792       C  0.87368160  0.06181242  0.54788126     0.37100
N1793       N  0.82056556  0.21153332  0.57275411    -0.43700
N1794       N  0.85901463  0.09539372  0.70048011    -0.44100
N1795       N  0.86200966  0.04668095  0.53025612    -0.41500
N1796       N  0.93797087  0.15861314  0.63900941    -0.42900
H1797       H  0.95766903  0.10595582  0.59174865     0.13300
H1798       H  0.84378595  0.09656087  0.58378386     0.09700
H1799       H  0.86211426  0.15948732  0.57167608     0.10800
H1800       H  0.81947752  0.14865440  0.70467357     0.16600
C1801       C  0.90265920  0.38227393  0.91861649    -0.01600
C1802       C  0.89001124  0.38534968  0.88120286     0.07000
C1803       C  0.89673265  0.40617521  0.86013966    -0.07600
C1804       C  0.91567995  0.42401064  0.87581771     0.04400
C1805       C  0.92757248  0.42144373  0.91397060    -0.14800
C1806       C  0.92104485  0.40032163  0.93478608    -0.08100
C1807       C  0.86999074  0.36697669  0.86310720     0.05400
C1808       C  0.83826589  0.37144413  0.85957270    -0.09200
C1809       C  0.81853237  0.35452485  0.84257415     0.00400
C1810       C  0.83071969  0.33277335  0.82825608     0.00200
C1811       C  0.86261915  0.32854133  0.83163888    -0.12800
C1812       C  0.88221327  0.34538750  0.84880567     0.00700
C1813       C  0.78582794  0.35948014  0.84197382     0.40000
C1814       C  0.91483101  0.34026877  0.85105396     0.36600
C1815       C  0.89707019  0.36077821  0.94091644     0.36400
C1816       C  0.92361420  0.44407335  0.85119101     0.37100
N1817       N  0.75960948  0.36342384  0.84166036    -0.43700
N1818       N  0.94095224  0.33613426  0.85295366    -0.44100
N1819       N  0.92998622  0.45992681  0.83098439    -0.41500
N1820       N  0.89289056  0.34344264  0.95864038    -0.42900
H1821       H  0.92999796  0.39798811  0.96399079     0.13300
H1822       H  0.88754574  0.40828054  0.83099682     0.09700
H1823       H  0.82886090  0.38806649  0.87068884     0.10800
H1824       H  0.87238141  0.31203518  0.82056166     0.16600
C1825       C  0.88700608  0.15880116  0.83749151    -0.01600
C1826       C  0.87600569  0.13619895  0.84954802     0.07000
C1827       C  0.84440781  0.13100653  0.84603600    -0.07600
C1828       C  0.82375259  0.14796196  0.83116948     0.04400
C1829       C  0.83455804  0.17094518  0.82039643    -0.14800
C1830       C  0.86629560  0.17598048  0.82354831    -0.08100
C1831       C  0.89668453  0.11821281  0.86786437     0.05400
C1832       C  0.91220976  0.12428233  0.90224280    -0.09200
C1833       C  0.93018948  0.10747322  0.92217431     0.00400
C1834       C  0.93303650  0.08385549  0.90749864     0.00200
C1835       C  0.91776322  0.07802717  0.87265666    -0.12800
C1836       C  0.89978575  0.09487037  0.85291303     0.00700
C1837       C  0.94409345  0.11490089  0.95838315     0.40000
C1838       C  0.88501322  0.08776225  0.81714653     0.36600
C1839       C  0.91954292  0.16450972  0.83809936     0.36400
C1840       C  0.79153456  0.14149323  0.82861289     0.37100
N1841       N  0.94566154  0.11587249  0.49780313    -0.43700
N1842       N  0.87318809  0.08189210  0.78855874    -0.44100
N1843       N  0.76574154  0.13624248  0.82642514    -0.41500
N1844       N  0.94564028  0.16898567  0.83840629    -0.42900
H1845       H  0.87508289  0.19331494  0.81448656     0.13300
H1846       H  0.83575881  0.11372570  0.85556268     0.09700
H1847       H  0.90954760  0.14212456  0.91417228     0.10800
H1848       H  0.91974297  0.06015778  0.86065261     0.16600
C1849       C  0.65821371  0.37212545  0.84054753    -0.01600
C1850       C  0.64050399  0.36721794  0.87403687     0.07000
C1851       C  0.64200114  0.34451942  0.89110589    -0.07600
C1852       C  0.66080907  0.32660762  0.87538287     0.04400
C1853       C  0.67861065  0.33127199  0.84138327    -0.14800
C1854       C  0.67705589  0.35429009  0.82462206    -0.08100
C1855       C  0.62051701  0.38560359  0.89214288     0.05400
C1856       C  0.58832887  0.38341031  0.88912673    -0.09200
C1857       C  0.56874617  0.40052082  0.90583350     0.00400
C1858       C  0.58151423  0.42025157  0.92579562     0.00200
C1859       C  0.61372852  0.42223509  0.92906504    -0.12800
C1860       C  0.63321716  0.40501316  0.91277040     0.00700
C1861       C  0.53582297  0.39798484  0.90063981     0.40000
C1862       C  0.66614300  0.40732739  0.91813297     0.36600
C1863       C  0.65683364  0.39518083  0.82156321     0.36400
C1864       C  0.66134114  0.30385049  0.89536072     0.37100
N1865       N  0.50945670  0.39592825  0.89634601    -0.43700
N1866       N  0.69254068  0.40907015  0.92242935    -0.44100
N1867       N  0.66155066  0.28565696  0.91151109    -0.41500
N1868       N  0.65568845  0.41367334  0.80642028    -0.42900
H1869       H  0.69009931  0.35833296  0.79845568     0.13300
H1870       H  0.62850112  0.34084947  0.91707965     0.09700
H1871       H  0.57854632  0.36843794  0.87330406     0.10800
H1872       H  0.62368567  0.43720231  0.94474229     0.16600
C1873       C  0.90902842  0.38338662  0.60093160    -0.01600
C1874       C  0.87696093  0.38738320  0.60369516     0.07000
C1875       C  0.86467232  0.40902262  0.59035211    -0.07600
C1876       C  0.88379827  0.42670903  0.57440365     0.04400
C1877       C  0.91608855  0.42296679  0.57207761    -0.14800
C1878       C  0.92824476  0.40104117  0.58493941    -0.08100
C1879       C  0.85591070  0.36945684  0.62133328     0.05400
C1880       C  0.84144842  0.37486164  0.65672693    -0.09200
C1881       C  0.82307899  0.35787901  0.67589402     0.00400
C1882       C  0.81863770  0.33495057  0.65918806     0.00200
C1883       C  0.83225588  0.33005430  0.62281539    -0.12800
C1884       C  0.85074846  0.34702402  0.60393743     0.00700
C1885       C  0.81052347  0.36423228  0.71343331     0.40000
C1886       C  0.86452361  0.34096757  0.56695944     0.36600
C1887       C  0.92278122  0.36164071  0.61554852     0.36400
C1888       C  0.86931337  0.44799080  0.55920211     0.37100
N1889       N  0.80046054  0.36933199  0.74350454    -0.43700
N1890       N  0.87587487  0.33616484  0.53749959    -0.41700
N1891       N  0.85729008  0.46484009  0.54688426    -0.41500
N1892       N  0.93360826  0.34414481  0.62726890    -0.42900
H1893       H  0.95292071  0.39791174  0.58343349     0.13300
H1894       H  0.83996576  0.41200391  0.59215842     0.09700
H1895       H  0.84536179  0.39219610  0.67002729     0.10800
H1896       H  0.82880368  0.31277005  0.60917369     0.16600
O1897       O  0.93245601  0.96308895  0.06405019    -0.74900
O1898       O  0.96415983  0.93458433  0.03831393    -0.53800
C1899       C  0.94011801  0.94122268  0.05746200     0.78900
O1900       O  0.94280191  0.54295859  0.41973437    -0.59500
O1901       O  0.96914461  0.57075887  0.45498091    -0.52500
C1902       C  0.94878104  0.56472832  0.42968508     0.70900
O1903       O  0.94654645  0.96158007  0.42035743    -0.74000
O1904       O  0.97090816  0.93348249  0.45728573    -0.54600
C1905       C  0.95206830  0.93979998  0.43017263     0.76900
O1906       O  0.93367424  0.54385178  0.06675605    -0.59200
O1907       O  0.96515494  0.57153251  0.03800298    -0.52300
C1908       C  0.94148684  0.56551481  0.05854044     0.73500
Zr1909     Zr  0.95290222  0.00318775  0.05307909     2.54700
O1910       O  0.89684106  0.00411268  0.05560454    -0.79700
O1911       O  0.95453344  0.50359242  0.12538610    -0.93200
Zr1912     Zr  0.96309765  0.00147927  0.43883872     2.64700
O1913       O  0.90746359  0.99992554  0.42896392    -0.98100
O1914       O  0.96362851  0.50230681  0.36746760    -0.80200
O1915       O  0.95594504  0.97986310  0.99568865    -0.83500
O1916       O  0.95502356  0.52581527  0.99607377    -2.18200
O1917       O  0.56407721  0.54231157  0.08075925    -0.66900
O1918       O  0.53700937  0.57000318  0.04614486    -0.51500
C1919       C  0.55765792  0.56402232  0.07116705     0.71900
O1920       O  0.56950446  0.96081505  0.43824203    -0.59800
O1921       O  0.53737576  0.93307891  0.46529933    -0.51800
C1922       C  0.56108840  0.93909259  0.44492233     0.73700
O1923       O  0.56889600  0.54155678  0.43120799    -0.71200
O1924       O  0.53899637  0.56981194  0.46067184    -0.49900
C1925       C  0.56179896  0.56342192  0.43892452     0.75000
O1926       O  0.56096397  0.96159176  0.07610246    -0.66500
O1927       O  0.53301937  0.93358838  0.04337134    -0.53700
C1928       C  0.55397498  0.93977175  0.06788538     0.73400
Zr1929     Zr  0.54617246  0.50234462  0.06354673     2.77500
O1930       O  0.60222189  0.49973955  0.06675538    -0.97300
O1931       O  0.53898860  0.50475715  0.13371123    -0.78100
Zr1932     Zr  0.55005574  0.50141211  0.44606653     2.70100
O1933       O  0.60625018  0.50108312  0.44499344    -0.79400
O1934       O  0.54861440  0.50011966  0.37532792    -0.98400
Zr1935     Zr  0.50062403  0.95634150  0.50257568     2.21500
Zr1936     Zr  0.00167098  0.54833017  0.99983696     2.11100
O1937       O  0.54777778  0.52445117  0.50383466    -2.47100
O1938       O  0.54703443  0.97872977  0.50932540    -0.79200
O1939       O  0.99827523  0.52660590  0.05937267    -0.71400
O1940       O  0.50613504  0.97870736  0.44391017    -2.32300
O1941       O  0.49886909  0.97932868  0.05807542    -2.28500
O1942       O  0.00466756  0.52533488  0.43977488    -0.73100
H1943       H  0.93767983  0.53602068  0.49342215     0.78900
H1944       H  0.50795572  0.96826239  0.42166674     0.80000
H1945       H  0.56822307  0.53507820  0.00650677     0.82200
H1946       H  0.49756615  0.96911192  0.08072512     0.79800
H1947       H  0.98505827  0.98727116  0.36411578     0.42800
H1948       H  0.54154467  0.51625404  0.36744882     0.41800
H1949       H  0.61147418  0.99584856  0.48534239     0.41500
H1950       H  0.60984310  0.51398439  0.05246553     0.39400
H1951       H  0.52990386  0.52077553  0.13816926     0.42600
H1952       H  0.95210899  0.98641025  0.13153271     0.37300
H1953       H  0.89053498  0.00367924  0.02794619     0.43500
H1954       H  0.89564722  0.51622424  0.44884938     0.39900
H1955       H  0.60724433  0.50299195  0.09432265     0.44800
H1956       H  0.93522343  0.01115385  0.13186654     0.43500
H1957       H  0.90390591  0.00816337  0.40385080     0.43600
H1958       H  0.57058979  0.49960016  0.36739845     0.44000
O1959       O  0.81947439  0.79324123  0.31815206    -0.74900
O1960       O  0.78803752  0.82167705  0.29194681    -0.53800
C1961       C  0.81163283  0.81517609  0.31201179     0.78900
O1962       O  0.80962723  0.71409552  0.16881078    -0.59500
O1963       O  0.78547680  0.68539002  0.20470520    -0.52500
C1964       C  0.80457046  0.69207703  0.17802410     0.70900
O1965       O  0.81131734  0.79460940  0.17375044    -0.74000
O1966       O  0.78430794  0.82211306  0.20873783    -0.54600
C1967       C  0.80485101  0.81626896  0.18342533     0.76900
O1968       O  0.81763445  0.71217280  0.31900867    -0.59200
O1969       O  0.78801418  0.68428298  0.28815279    -0.52300
C1970       C  0.81025892  0.69039335  0.31078257     0.73500
Zr1971     Zr  0.80058188  0.75288403  0.30447334     2.54700
O1972       O  0.85674273  0.75188030  0.30260363    -0.79700
O1973       O  0.79965665  0.75304383  0.37530984    -0.93200
Zr1974     Zr  0.79395204  0.75425866  0.18887577     2.64700
O1975       O  0.84963211  0.75440287  0.17870973    -0.98100
O1976       O  0.78378209  0.75643406  0.11936270    -0.80200
O1977       O  0.79761954  0.77657068  0.24737212    -0.83500
O1978       O  0.79834658  0.73070466  0.24588098    -2.18200
O1979       O  0.69408740  0.71132140  0.32976703    -0.66900
O1980       O  0.72012359  0.68417704  0.29295982    -0.51500
C1981       C  0.70028405  0.68973344  0.31931062     0.71900
O1982       O  0.68325155  0.79436943  0.18723511    -0.59800
O1983       O  0.71447395  0.82248487  0.21492767    -0.51800
C1984       C  0.69069017  0.81618725  0.19498694     0.73700
O1985       O  0.68522852  0.71390130  0.18079008    -0.71200
O1986       O  0.71620096  0.68576574  0.20866077    -0.49900
C1987       C  0.69323187  0.69208884  0.18741188     0.75000
O1988       O  0.69075479  0.79151957  0.32904057    -0.66500
O1989       O  0.71803093  0.82055217  0.29754205    -0.53700
C1990       C  0.69709479  0.81354433  0.32167190     0.73400
Zr1991     Zr  0.70997449  0.75199524  0.31276476     2.77500
O1992       O  0.65476623  0.75192900  0.32628746    -0.97300
O1993       O  0.72134929  0.75246585  0.38207916    -0.78100
Zr1994     Zr  0.70339995  0.75395960  0.19704038     2.70100
O1995       O  0.64732933  0.75269803  0.19515849    -0.79400
O1996       O  0.70595946  0.75545653  0.12627450    -0.98400
Zr1997     Zr  0.75147000  0.79943778  0.25254540     2.21500
Zr1998     Zr  0.75233907  0.70734517  0.24912098     2.11100
O1999       O  0.70593306  0.73008594  0.25408638    -2.47100
O2000       O  0.70572763  0.77585936  0.25589436    -0.79200
O2001       O  0.75555859  0.72881741  0.30879191    -0.71400
O2002       O  0.74852997  0.77781427  0.19281560    -2.32300
O2003       O  0.75506560  0.77609291  0.31062917    -2.28500
O2004       O  0.74871397  0.73044712  0.19096449    -0.73100
H2005       H  0.81645114  0.72066193  0.24397594     0.78900
H2006       H  0.74725702  0.78856978  0.17084409     0.80000
H2007       H  0.68794208  0.71982878  0.25538406     0.82200
H2008       H  0.75617664  0.78616931  0.33337980     0.79800
H2009       H  0.80149196  0.76550156  0.10852073     0.42800
H2010       H  0.68559665  0.74939482  0.11763530     0.41800
H2011       H  0.64115976  0.74995970  0.22256317     0.41500
H2012       H  0.64605419  0.73954930  0.30887753     0.39400
H2013       H  0.72582862  0.73557908  0.38871830     0.42600
H2014       H  0.82169912  0.75282700  0.38291604     0.37300
H2015       H  0.86209745  0.75741005  0.27604122     0.43500
H2016       H  0.85741489  0.74073397  0.19418618     0.39900
H2017       H  0.65280388  0.74510742  0.35278638     0.44800
H2018       H  0.79183431  0.73699594  0.38262870     0.43500
H2019       H  0.85246290  0.74947742  0.15127886     0.43600
H2020       H  0.70562609  0.77270985  0.11972923     0.44000
C2021       C  0.60852187  0.59637265  0.14380678    -0.01600
C2022       C  0.61396521  0.61833633  0.12481440     0.07000
C2023       C  0.60027975  0.62274627  0.08867463    -0.07600
C2024       C  0.58130626  0.60567743  0.07110994     0.04400
C2025       C  0.57604181  0.58335803  0.08968252    -0.14800
C2026       C  0.58985054  0.57905596  0.12610082    -0.08100
C2027       C  0.63400710  0.63705769  0.14180525     0.05400
C2028       C  0.66577918  0.63280833  0.14501102    -0.09200
C2029       C  0.68569674  0.65053996  0.15907590     0.00400
C2030       C  0.67368143  0.67298955  0.17054266     0.00200
C2031       C  0.64180096  0.67714766  0.16708152    -0.12800
C2032       C  0.62200404  0.65944644  0.15286221     0.00700
C2033       C  0.71833728  0.64535641  0.16043394     0.40000
C2034       C  0.58937811  0.66450211  0.15034067     0.36600
C2035       C  0.62122621  0.59151990  0.18182728     0.36400
C2036       C  0.56830302  0.61156982  0.03365513     0.37100
N2037       N  0.74445707  0.64110932  0.16163673    -0.43700
N2038       N  0.56323405  0.66849386  0.14815679    -0.44100
N2039       N  0.54892482  0.61972984  0.50837512    -0.41500
N2040       N  0.63133197  0.58774842  0.21236564    -0.42900
H2041       H  0.58589533  0.56218704  0.14097788     0.13300
H2042       H  0.60462726  0.63964156  0.07401416     0.09700
H2043       H  0.67507319  0.61569720  0.13588066     0.10800
H2044       H  0.63217969  0.69416831  0.17611442     0.16600
C2045       C  0.65209135  0.65681286  0.39471202    -0.01600
C2046       C  0.64527785  0.63511917  0.37568638     0.07000
C2047       C  0.65778099  0.63089416  0.33868906    -0.07600
C2048       C  0.67621409  0.64809075  0.32008349     0.04400
C2049       C  0.68269584  0.67012192  0.33874309    -0.14800
C2050       C  0.67064744  0.67401962  0.37627335    -0.08100
C2051       C  0.62421556  0.61693194  0.39303456     0.05400
C2052       C  0.59285810  0.62250095  0.39807069    -0.09200
C2053       C  0.57193670  0.60544544  0.41258173     0.00400
C2054       C  0.58242249  0.58227148  0.42257699     0.00200
C2055       C  0.61387181  0.57681852  0.41733790    -0.12800
C2056       C  0.63467766  0.59384341  0.40283941     0.00700
C2057       C  0.53973782  0.61191021  0.41524328     0.40000
C2058       C  0.66681743  0.58737149  0.39924575     0.36600
C2059       C  0.64043083  0.66175551  0.43323689     0.36400
C2060       C  0.68671885  0.64297971  0.28112992     0.37100
N2061       N  0.51392374  0.61706497  0.41738318    -0.43700
N2062       N  0.69256014  0.58211739  0.39654111    -0.44100
N2063       N  0.69518138  0.63882740  0.24994011    -0.41500
N2064       N  0.63108557  0.66575501  0.46410695    -0.42900
H2065       H  0.67554784  0.69066131  0.39125675     0.13300
H2066       H  0.65240031  0.61428900  0.32383732     0.09700
H2067       H  0.58461764  0.64012863  0.38993614     0.10800
H2068       H  0.62243472  0.55923430  0.42518524     0.16600
C2069       C  0.60483568  0.91052086  0.14367321    -0.01600
C2070       C  0.61084074  0.88797458  0.12717878     0.07000
C2071       C  0.59635331  0.88163303  0.09223805    -0.07600
C2072       C  0.57685318  0.89771125  0.07286175     0.04400
C2073       C  0.57184844  0.92085757  0.08844875    -0.14800
C2074       C  0.58569914  0.92671153  0.12424282    -0.08100
C2075       C  0.63174911  0.87051307  0.14611646     0.05400
C2076       C  0.61883820  0.85042379  0.16427926    -0.09200
C2077       C  0.63761132  0.83285074  0.18094877     0.00400
C2078       C  0.67013989  0.83523573  0.17970912     0.00200
C2079       C  0.68305595  0.85574621  0.16227389    -0.12800
C2080       C  0.66413111  0.87320469  0.14513746     0.00700
C2081       C  0.62268994  0.81284771  0.19988209     0.40000
C2082       C  0.67829838  0.89318024  0.12517546     0.36600
C2083       C  0.61766163  0.91736979  0.18075218     0.36400
C2084       C  0.56299554  0.88995623  0.03684961     0.37100
N2085       N  0.61037877  0.79695264  0.21500925    -0.43700
N2086       N  0.68943916  0.90916845  0.10888692    -0.44100
N2087       N  0.53968535  0.88100182  0.51931369    -0.41500
N2088       N  0.62767705  0.92304830  0.21052442    -0.42900
H2089       H  0.58161230  0.94409308  0.13725115     0.13300
H2090       H  0.60060118  0.86409632  0.07985862     0.09700
H2091       H  0.59392875  0.84842170  0.16521926     0.10800
H2092       H  0.70794629  0.85772334  0.16083881     0.16600
C2093       C  0.91528223  0.62214339  0.10890247    -0.01600
C2094       C  0.88286493  0.61991807  0.10687053     0.07000
C2095       C  0.86992937  0.60059812  0.08673319    -0.07600
C2096       C  0.88874908  0.58320386  0.06964135     0.04400
C2097       C  0.92119590  0.58467297  0.07345772    -0.14800
C2098       C  0.93418640  0.60448347  0.09243787    -0.08100
C2099       C  0.86199267  0.63786992  0.12469771     0.05400
C2100       C  0.85922564  0.66035524  0.10715351    -0.09200
C2101       C  0.83985549  0.67790363  0.12288197     0.00400
C2102       C  0.82304500  0.67324733  0.15765539     0.00200
C2103       C  0.82543731  0.65030136  0.17457213    -0.12800
C2104       C  0.84455049  0.63269215  0.15832257     0.00700
C2105       C  0.83740919  0.70019584  0.10182024     0.40000
C2106       C  0.84655693  0.60960494  0.17711461     0.36600
C2107       C  0.92954721  0.64227371  0.12806161     0.36400
C2108       C  0.87423036  0.56481062  0.04652148     0.37100
N2109       N  0.83555264  0.71794564  0.08458876    -0.43700
N2110       N  0.84822431  0.59105698  0.19199836    -0.44100
N2111       N  0.86239552  0.55037669  0.02757708    -0.41500
N2112       N  0.94089497  0.65852825  0.14321837    -0.42900
H2113       H  0.95907359  0.60595418  0.09495231     0.13300
H2114       H  0.84503906  0.59930084  0.08397131     0.09700
H2115       H  0.87218703  0.66414254  0.08079510     0.10800
H2116       H  0.81289109  0.64616872  0.20108542     0.16600
C2117       C  0.90801938  0.88217584  0.41381486    -0.01600
C2118       C  0.89504830  0.88588390  0.37673006     0.07000
C2119       C  0.90259521  0.90664184  0.35589027    -0.07600
C2120       C  0.92235174  0.92391963  0.37177087     0.04400
C2121       C  0.93433723  0.92078568  0.40983198    -0.14800
C2122       C  0.92735108  0.89956373  0.43007518    -0.08100
C2123       C  0.87383965  0.86810586  0.35906489     0.05400
C2124       C  0.84229401  0.87343688  0.35601029    -0.09200
C2125       C  0.82138892  0.85662239  0.34091801     0.00400
C2126       C  0.83217817  0.83397910  0.32838661     0.00200
C2127       C  0.86391036  0.82895165  0.33122371    -0.12800
C2128       C  0.88466197  0.84576834  0.34611600     0.00700
C2129       C  0.78903362  0.86281508  0.34012247     0.40000
C2130       C  0.91708614  0.83986998  0.34731520     0.36600
C2131       C  0.90137968  0.86078783  0.43592733     0.36400
C2132       C  0.93051807  0.94421431  0.34773047     0.37100
N2133       N  0.76315356  0.86792356  0.33954428    -0.43700
N2134       N  0.94308607  0.83520248  0.34830262    -0.44100
N2135       N  0.93701387  0.96031896  0.32811052    -0.41500
N2136       N  0.89617740  0.84349041  0.45331659    -0.42900
H2137       H  0.93629366  0.89678611  0.45917974     0.13300
H2138       H  0.89321211  0.90922251  0.32695053     0.09700
H2139       H  0.83393756  0.89063427  0.36610592     0.10800
H2140       H  0.87270314  0.81186284  0.32125520     0.16600
C2141       C  0.88119059  0.65903399  0.34880547    -0.01600
C2142       C  0.86965608  0.63638559  0.35957545     0.07000
C2143       C  0.83812673  0.63139514  0.35464516    -0.07600
C2144       C  0.81809283  0.64863982  0.33908687     0.04400
C2145       C  0.82980817  0.67128029  0.32772170    -0.14800
C2146       C  0.86140330  0.67609171  0.33276214    -0.08100
C2147       C  0.89013117  0.61799646  0.37695874     0.05400
C2148       C  0.90290536  0.62220618  0.41372921    -0.09200
C2149       C  0.92290704  0.60564524  0.43092831     0.00400
C2150       C  0.92998408  0.58396469  0.41145285     0.00200
C2151       C  0.91723028  0.57995975  0.37442159    -0.12800
C2152       C  0.89770977  0.59679729  0.35702196     0.00700
C2153       C  0.93526238  0.61146529  0.46872557     0.40000
C2154       C  0.88643859  0.59221349  0.31825786     0.36600
C2155       C  0.91328212  0.66523066  0.35406803     0.36400
C2156       C  0.78557347  0.64299165  0.33701842     0.37100
N2157       N  0.94429407  0.61769060  0.99453178    -0.43700
N2158       N  0.87762753  0.58847492  0.28709782    -0.44100
N2159       N  0.75954144  0.63834584  0.33571792    -0.41500
N2160       N  0.93893429  0.67028349  0.35865002    -0.42900
H2161       H  0.87078842  0.69330217  0.32402656     0.13300
H2162       H  0.82908932  0.61412884  0.36365827     0.09700
H2163       H  0.89722540  0.63859442  0.42902250     0.10800
H2164       H  0.92267777  0.56365258  0.35880509     0.16600
C2165       C  0.65605416  0.87215243  0.34063558    -0.01600
C2166       C  0.64109489  0.86767378  0.37641412     0.07000
C2167       C  0.64489506  0.84543295  0.39460574    -0.07600
C2168       C  0.66334192  0.82768031  0.37782627     0.04400
C2169       C  0.67842740  0.83207720  0.34181382    -0.14800
C2170       C  0.67465560  0.85450830  0.32385052    -0.08100
C2171       C  0.62089152  0.88576375  0.39503620     0.05400
C2172       C  0.58937259  0.88065391  0.39989877    -0.09200
C2173       C  0.56933157  0.89747391  0.41651059     0.00400
C2174       C  0.58089096  0.92002790  0.42829559     0.00200
C2175       C  0.61259761  0.92483812  0.42388171    -0.12800
C2176       C  0.63260882  0.90787432  0.40802932     0.00700
C2177       C  0.53703067  0.89132246  0.41988043     0.40000
C2178       C  0.66522369  0.91325641  0.40668087     0.36600
C2179       C  0.65177966  0.89440430  0.31992796     0.36400
C2180       C  0.66673685  0.80540732  0.39880354     0.37100
N2181       N  0.51118212  0.88630135  0.42269201    -0.43700
N2182       N  0.69135813  0.91756790  0.40579270    -0.44100
N2183       N  0.66942029  0.78753989  0.41553828    -0.41500
N2184       N  0.64835299  0.91228337  0.30346905    -0.42900
H2185       H  0.68561191  0.85811162  0.29603960     0.13300
H2186       H  0.63346827  0.84198987  0.42218179     0.09700
H2187       H  0.58035716  0.86355020  0.39021268     0.10800
H2188       H  0.62198766  0.94182561  0.43354315     0.16600
C2189       C  0.91471069  0.88498527  0.10954221    -0.01600
C2190       C  0.88230528  0.88733066  0.10899794     0.07000
C2191       C  0.86889482  0.90698064  0.09032507    -0.07600
C2192       C  0.88728651  0.92443890  0.07252892     0.04400
C2193       C  0.91980756  0.92242711  0.07364441    -0.14800
C2194       C  0.93317574  0.90244535  0.09172463    -0.08100
C2195       C  0.86180446  0.86937157  0.12727824     0.05400
C2196       C  0.84733531  0.87487464  0.16259240    -0.09200
C2197       C  0.82775647  0.85833361  0.18087592     0.00400
C2198       C  0.82286567  0.83553513  0.16389455     0.00200
C2199       C  0.83671969  0.83054387  0.12768752    -0.12800
C2200       C  0.85574548  0.84732008  0.10921622     0.00700
C2201       C  0.81352007  0.86531371  0.21711995     0.40000
C2202       C  0.86821733  0.84185961  0.07128700     0.36600
C2203       C  0.92954729  0.86518531  0.12894725     0.36400
C2204       C  0.87210790  0.94364987  0.05201135     0.37100
N2205       N  0.80188231  0.87111692  0.24591625    -0.43700
N2206       N  0.87807015  0.83768791  0.04074019    -0.41700
N2207       N  0.85972547  0.95887635  0.03540704    -0.41500
N2208       N  0.94171556  0.84942649  0.14446860    -0.42900
H2209       H  0.95810785  0.90078514  0.09279199     0.13300
H2210       H  0.84394447  0.90853710  0.08939136     0.09700
H2211       H  0.85149411  0.89215200  0.17596734     0.10800
H2212       H  0.83259925  0.81349705  0.11355761     0.16600
O2213       O  0.93231404  0.96257826  0.56656298    -0.74900
O2214       O  0.96387637  0.93390277  0.54115718    -0.53800
C2215       C  0.93972853  0.94064534  0.55998865     0.78900
O2216       O  0.94453305  0.54309880  0.91887470    -0.59500
O2217       O  0.97074822  0.57091400  0.95423343    -0.52500
C2218       C  0.95119457  0.56488447  0.92792239     0.70900
O2219       O  0.94126362  0.96238965  0.92308466    -0.74000
O2220       O  0.96800653  0.93414152  0.95677442    -0.54600
C2221       C  0.94727784  0.94052260  0.93200261     0.76900
O2222       O  0.93476218  0.54403384  0.56610435    -0.59200
O2223       O  0.96686034  0.57147629  0.53768126    -0.52300
C2224       C  0.94314977  0.56561734  0.55817052     0.73500
Zr2225     Zr  0.95369799  0.00232388  0.55433866     2.54700
O2226       O  0.89765612  0.00291587  0.55359181    -0.79700
O2227       O  0.95262046  0.50171599  0.62419057    -0.93200
Zr2228     Zr  0.96000381  0.00249044  0.93763335     2.64700
O2229       O  0.90441712  0.00232533  0.92699543    -0.98100
O2230       O  0.96952834  0.50199917  0.86931766    -0.80200
O2231       O  0.95727479  0.97895965  0.49704132    -0.83500
O2232       O  0.95550888  0.52572186  0.49508464    -2.18200
O2233       O  0.56085864  0.54210182  0.57885861    -0.66900
O2234       O  0.53388164  0.56998736  0.54468473    -0.51500
C2235       C  0.55446950  0.56391787  0.56963226     0.71900
O2236       O  0.56967643  0.96022187  0.93493280    -0.59800
O2237       O  0.53692966  0.93292249  0.96224050    -0.51800
C2238       C  0.56117760  0.93860508  0.94254661     0.73700
O2239       O  0.56964873  0.54168554  0.93088019    -0.71200
O2240       O  0.54065434  0.57023344  0.96119429    -0.49900
C2241       C  0.56267534  0.56354406  0.93862214     0.75000
O2242       O  0.55950748  0.96145406  0.58050685    -0.66500
O2243       O  0.53244086  0.93348918  0.54676271    -0.53700
C2244       C  0.55335092  0.93959901  0.57128289     0.73400
Zr2245     Zr  0.54401299  0.50161681  0.56175240     2.77500
O2246       O  0.59972689  0.50130726  0.57155488    -0.97300
O2247       O  0.53461381  0.50147740  0.63161646    -0.78100
Zr2248     Zr  0.55246853  0.50156680  0.94809429     2.70100
O2249       O  0.60849557  0.50188878  0.95381005    -0.79400
O2250       O  0.55460291  0.50061204  0.87726341    -0.98400
Zr2251     Zr  0.50029408  0.95635974  0.99963519     2.21500
Zr2252     Zr  0.00216455  0.54824263  0.49815862     2.11100
O2253       O  0.55010379  0.52496167  0.00535434    -2.47100
O2254       O  0.54710742  0.97847422  0.00150279    -0.79200
O2255       O  0.99829982  0.52662067  0.55794898    -0.71400
O2256       O  0.50295930  0.97813115  0.93986809    -2.32300
O2257       O  0.49594907  0.97872229  0.56148662    -2.28500
O2258       O  0.00452191  0.52543606  0.94152913    -0.73100
H2259       H  0.93720774  0.53610658  0.99402632     0.78900
H2260       H  0.50346813  0.96739130  0.91788405     0.80000
H2261       H  0.56593600  0.53451375  0.50522083     0.82200
H2262       H  0.49377820  0.96827621  0.58375986     0.79800
H2263       H  0.97644493  0.01746649  0.86106615     0.42800
H2264       H  0.57628014  0.49641092  0.87117861     0.41800
H2265       H  0.61245698  0.00104050  0.96506797     0.41500
H2266       H  0.60793533  0.51317323  0.55273161     0.39400
H2267       H  0.53948486  0.48498312  0.64015746     0.42600
H2268       H  0.93386700  0.00560709  0.63312699     0.37300
H2269       H  0.89244238  0.00216973  0.52558592     0.43500
H2270       H  0.89547091  0.51724828  0.94113079     0.39900
H2271       H  0.60290920  0.50873541  0.59736986     0.44800
H2272       H  0.96645607  0.01770960  0.63160112     0.43500
H2273       H  0.90146699  0.01028545  0.90151792     0.43600
H2274       H  0.54264547  0.48622484  0.86984508     0.44000
O2275       O  0.81913802  0.79211219  0.81599257    -0.74900
O2276       O  0.78693278  0.82029428  0.79048823    -0.53800
C2277       C  0.81072487  0.81396843  0.81033502     0.78900
O2278       O  0.80841725  0.71336222  0.66500823    -0.59500
O2279       O  0.78476556  0.68444570  0.70109205    -0.52500
C2280       C  0.80367008  0.69133919  0.67423018     0.70900
O2281       O  0.80792540  0.79297010  0.66994675    -0.74000
O2282       O  0.78206033  0.82031159  0.70651656    -0.54600
C2283       C  0.80185116  0.81459170  0.68009924     0.76900
O2284       O  0.82054324  0.71109655  0.81385316    -0.59200
O2285       O  0.79107440  0.68300113  0.78341480    -0.52300
C2286       C  0.81397653  0.68927465  0.80485708     0.73500
Zr2287     Zr  0.80154879  0.75154023  0.80138126     2.54700
O2288       O  0.85750964  0.75240819  0.79540247    -0.79700
O2289       O  0.80374515  0.75069681  0.87214522    -0.93200
Zr2290     Zr  0.79126276  0.75277774  0.68627474     2.64700
O2291       O  0.84696329  0.75333153  0.67605365    -0.98100
O2292       O  0.77840597  0.75392484  0.61738513    -0.80200
O2293       O  0.79634478  0.77516484  0.74451581    -0.83500
O2294       O  0.79775978  0.72936788  0.74292746    -2.18200
O2295       O  0.69648269  0.70950480  0.83155600    -0.66900
O2296       O  0.72161515  0.68249851  0.79357782    -0.51500
C2297       C  0.70226259  0.68800171  0.82049811     0.71900
O2298       O  0.67954355  0.79160913  0.69017868    -0.59800
O2299       O  0.71205394  0.81985188  0.71511250    -0.51800
C2300       C  0.68764971  0.81342202  0.69654233     0.73700
O2301       O  0.68414176  0.71140444  0.68320210    -0.71200
O2302       O  0.71554459  0.68315208  0.70993610    -0.49900
C2303       C  0.69218834  0.68956667  0.68942469     0.75000
O2304       O  0.69340080  0.78953694  0.83436331    -0.66500
O2305       O  0.71683272  0.81844617  0.79783328    -0.53700
C2306       C  0.69797240  0.81151668  0.82465982     0.73400
Zr2307     Zr  0.71146385  0.75009716  0.81464143     2.77500
O2308       O  0.65624234  0.74941899  0.82831091    -0.97300
O2309       O  0.72328810  0.74876688  0.88384821    -0.78100
Zr2310     Zr  0.70094098  0.75171584  0.69958971     2.70100
O2311       O  0.64494238  0.74895700  0.70329756    -0.79400
O2312       O  0.69939183  0.75464253  0.62892007    -0.98400
Zr2313     Zr  0.75018593  0.79768518  0.75202045     2.21500
Zr2314     Zr  0.75249068  0.70551067  0.74817539     2.11100
O2315       O  0.70604859  0.72795332  0.75621805    -2.47100
O2316       O  0.70484982  0.77385367  0.75807562    -0.79200
O2317       O  0.75709829  0.72703379  0.80788355    -0.71400
O2318       O  0.74562519  0.77585428  0.69276793    -2.32300
O2319       O  0.75606951  0.77446567  0.80988801    -2.28500
O2320       O  0.74637441  0.72865752  0.69056023    -0.73100
H2321       H  0.81597466  0.71955309  0.73997264     0.78900
H2322       H  0.74343982  0.78655964  0.67086850     0.80000
H2323       H  0.68824663  0.71754557  0.75825797     0.82200
H2324       H  0.75781459  0.78460903  0.83247831     0.79800
H2325       H  0.77516122  0.77107926  0.61143706     0.42800
H2326       H  0.67809796  0.74977766  0.62201713     0.41800
H2327       H  0.64051168  0.74683345  0.73136369     0.41500
H2328       H  0.64786111  0.73631667  0.81207036     0.39400
H2329       H  0.73403288  0.76404676  0.88927969     0.42600
H2330       H  0.82557363  0.74695158  0.87810277     0.37300
H2331       H  0.86165779  0.74613928  0.76898570     0.43500
H2332       H  0.85502262  0.73999392  0.69206861     0.39900
H2333       H  0.65454930  0.74343146  0.85536743     0.44800
H2334       H  0.79226162  0.73605669  0.87962410     0.43500
H2335       H  0.84993982  0.74804544  0.64882463     0.43600
H2336       H  0.70012731  0.77200556  0.62322575     0.44000
C2337       C  0.60678880  0.59518427  0.64187243    -0.01600
C2338       C  0.61047506  0.61798410  0.62491785     0.07000
C2339       C  0.59495182  0.62336516  0.59033336    -0.07600
C2340       C  0.57598495  0.60645092  0.57230768     0.04400
C2341       C  0.57269669  0.58322794  0.58868573    -0.14800
C2342       C  0.58826706  0.57802749  0.62361480    -0.08100
C2343       C  0.63114470  0.63628256  0.64207943     0.05400
C2344       C  0.66271719  0.63119839  0.64572178    -0.09200
C2345       C  0.68321356  0.64812130  0.66100755     0.00400
C2346       C  0.67207581  0.67077371  0.67271358     0.00200
C2347       C  0.64044183  0.67581704  0.66868506    -0.12800
C2348       C  0.62001745  0.65886204  0.65363536     0.00700
C2349       C  0.71553164  0.64194575  0.66295169     0.40000
C2350       C  0.58767126  0.66492070  0.65119151     0.36600
C2351       C  0.62124443  0.58919669  0.67843647     0.36400
C2352       C  0.56098145  0.61360595  0.53668431     0.37100
N2353       N  0.74137027  0.63680053  0.66446442    -0.43700
N2354       N  0.56180011  0.66990334  0.64925382    -0.44100
N2355       N  0.55769866  0.61645322  0.00381878    -0.41500
N2356       N  0.63280927  0.58451215  0.70778887    -0.42900
H2357       H  0.58586693  0.56052107  0.63696803     0.13300
H2358       H  0.59798000  0.64086402  0.57709322     0.09700
H2359       H  0.67141328  0.61399039  0.63614397     0.10800
H2360       H  0.63144751  0.69300808  0.67790400     0.16600
C2361       C  0.64853885  0.65708164  0.89147219    -0.01600
C2362       C  0.64475065  0.63445716  0.87429784     0.07000
C2363       C  0.66094216  0.62884263  0.84024564    -0.07600
C2364       C  0.68046827  0.64561308  0.82260805     0.04400
C2365       C  0.68422083  0.66857599  0.83950240    -0.14800
C2366       C  0.66826719  0.67381277  0.87422928    -0.08100
C2367       C  0.62375746  0.61638592  0.89115696     0.05400
C2368       C  0.59180009  0.62029794  0.88981555    -0.09200
C2369       C  0.57121132  0.60340312  0.90518347     0.00400
C2370       C  0.58278133  0.58207883  0.92166212     0.00200
C2371       C  0.61477817  0.57823071  0.92274423    -0.12800
C2372       C  0.63528108  0.59524328  0.90795165     0.00700
C2373       C  0.53849980  0.60805728  0.90256782     0.40000
C2374       C  0.66803378  0.59099816  0.91146704     0.36600
C2375       C  0.63237432  0.66357900  0.92669569     0.36400
C2376       C  0.69524650  0.63884200  0.78659144     0.37100
N2377       N  0.51232613  0.61192953  0.90035588    -0.43700
N2378       N  0.69426895  0.58763701  0.91452049    -0.44100
N2379       N  0.70717375  0.63338811  0.75779831    -0.41500
N2380       N  0.61939716  0.66895068  0.95480917    -0.42900
H2381       H  0.67078976  0.69119946  0.88784013     0.13300
H2382       H  0.65781409  0.61138731  0.82702069     0.09700
H2383       H  0.58299559  0.63654013  0.87657521     0.10800
H2384       H  0.62383043  0.56205733  0.93596215     0.16600
C2385       C  0.61084595  0.91032961  0.63944884    -0.01600
C2386       C  0.61107211  0.88640737  0.62667834     0.07000
C2387       C  0.59157965  0.87958193  0.59613615    -0.07600
C2388       C  0.57243641  0.89627914  0.57761319     0.04400
C2389       C  0.57220942  0.92049241  0.59023027    -0.14800
C2390       C  0.59157820  0.92699836  0.62138472    -0.08100
C2391       C  0.63110790  0.86810615  0.64510640     0.05400
C2392       C  0.61721269  0.84897440  0.66502672    -0.09200
C2393       C  0.63515893  0.83119296  0.68262871     0.00400
C2394       C  0.66771597  0.83242987  0.68040563     0.00200
C2395       C  0.68158500  0.85172248  0.66081864    -0.12800
C2396       C  0.66361599  0.86932972  0.64281916     0.00700
C2397       C  0.61959865  0.81237769  0.70390033     0.40000
C2398       C  0.67905211  0.88793228  0.62095065     0.36600
C2399       C  0.62998819  0.91823431  0.67129648     0.36400
C2400       C  0.55417714  0.88790308  0.54523999     0.37100
N2401       N  0.60703228  0.79739665  0.72105317    -0.43700
N2402       N  0.69153560  0.90279909  0.60344885    -0.44100
N2403       N  0.55178311  0.88345002  0.00822005    -0.41500
N2404       N  0.64546485  0.92470501  0.69659187    -0.42900
H2405       H  0.59186810  0.94528764  0.63186173     0.13300
H2406       H  0.59173617  0.86114042  0.58629801     0.09700
H2407       H  0.59223952  0.84803693  0.66700857     0.10800
H2408       H  0.70654288  0.85263739  0.65852260     0.16600
C2409       C  0.91566954  0.61942755  0.61475966    -0.01600
C2410       C  0.88426704  0.62043943  0.60403067     0.07000
C2411       C  0.87289300  0.60427368  0.57639088    -0.07600
C2412       C  0.89208304  0.58665803  0.56049643     0.04400
C2413       C  0.92312769  0.58495895  0.57258338    -0.14800
C2414       C  0.93487529  0.60175089  0.59894296    -0.08100
C2415       C  0.86283948  0.63812694  0.62148949     0.05400
C2416       C  0.85682808  0.65947387  0.60157965    -0.09200
C2417       C  0.83697505  0.67676344  0.61731855     0.00400
C2418       C  0.82261025  0.67277744  0.65400584     0.00200
C2419       C  0.82831336  0.65098302  0.67330572    -0.12800
C2420       C  0.84817248  0.63379271  0.65742336     0.00700
C2421       C  0.83160338  0.69810621  0.59457896     0.40000
C2422       C  0.85316776  0.61180209  0.67854808     0.36600
C2423       C  0.92861287  0.63631802  0.64193755     0.36400
C2424       C  0.87981898  0.57106641  0.53078072     0.37100
N2425       N  0.82753258  0.71509667  0.57598757    -0.43700
N2426       N  0.85699375  0.59415449  0.69550657    -0.44100
N2427       N  0.87015874  0.55871835  0.50668704    -0.41500
N2428       N  0.93911648  0.64987615  0.66362471    -0.42900
H2429       H  0.95887867  0.60075988  0.60770722     0.13300
H2430       H  0.84895207  0.60537096  0.56740038     0.09700
H2431       H  0.86783685  0.66266543  0.57365723     0.10800
H2432       H  0.81783250  0.64751878  0.70144513     0.16600
C2433       C  0.90657103  0.88105119  0.91543986    -0.01600
C2434       C  0.89101278  0.88510179  0.88004832     0.07000
C2435       C  0.89428951  0.90722510  0.86138952    -0.07600
C2436       C  0.91282744  0.92528736  0.87714056     0.04400
C2437       C  0.92846778  0.92147345  0.91290301    -0.14800
C2438       C  0.92512011  0.89911441  0.93147724    -0.08100
C2439       C  0.87068865  0.86678051  0.86205642     0.05400
C2440       C  0.83898211  0.87147009  0.85887585    -0.09200
C2441       C  0.81891696  0.85489218  0.84160798     0.00400
C2442       C  0.83060501  0.83288814  0.82753168     0.00200
C2443       C  0.86251426  0.82852209  0.83018801    -0.12800
C2444       C  0.88254240  0.84529417  0.84678041     0.00700
C2445       C  0.78653077  0.86085931  0.83971647     0.40000
C2446       C  0.91525521  0.84037583  0.84662125     0.36600
C2447       C  0.90312394  0.85874744  0.93628613     0.36400
C2448       C  0.91574919  0.94717892  0.85501880     0.37100
N2449       N  0.76068458  0.86599400  0.83826010    -0.43700
N2450       N  0.94145574  0.83637420  0.84630176    -0.44100
N2451       N  0.91784631  0.96457955  0.83687973    -0.41500
N2452       N  0.90035360  0.84079269  0.95276984    -0.42900
H2453       H  0.93649898  0.89584260  0.95904401     0.13300
H2454       H  0.88242348  0.91031268  0.83407115     0.09700
H2455       H  0.82987648  0.88816265  0.87011952     0.10800
H2456       H  0.87200067  0.81203789  0.81864876     0.16600
C2457       C  0.88709708  0.66009354  0.84169153    -0.01600
C2458       C  0.87767080  0.63628797  0.84832479     0.07000
C2459       C  0.84724757  0.62958692  0.83953428    -0.07600
C2460       C  0.82615003  0.64620685  0.82466103     0.04400
C2461       C  0.83520209  0.67039502  0.81944317    -0.14800
C2462       C  0.86589706  0.67688300  0.82784165    -0.08100
C2463       C  0.89854775  0.61853682  0.86678863     0.05400
C2464       C  0.91006748  0.62340838  0.90400911    -0.09200
C2465       C  0.92785096  0.60660115  0.92410570     0.00400
C2466       C  0.93454728  0.58419272  0.90680540     0.00200
C2467       C  0.92354166  0.57961700  0.86902195    -0.12800
C2468       C  0.90568747  0.59650288  0.84904559     0.00700
C2469       C  0.93712827  0.61255484  0.96322949     0.40000
C2470       C  0.89493289  0.59082656  0.81041902     0.36600
C2471       C  0.91863674  0.66755513  0.84795549     0.36400
C2472       C  0.79541356  0.63781141  0.81584812     0.37100
N2473       N  0.94532505  0.61653674  0.49875794    -0.43700
N2474       N  0.88617223  0.58626893  0.77952981    -0.44100
N2475       N  0.77095159  0.63078870  0.80858201    -0.41500
N2476       N  0.94396567  0.67342657  0.85284219    -0.42900
H2477       H  0.87362489  0.69512810  0.82301949     0.13300
H2478       H  0.83982276  0.61131416  0.84485304     0.09700
H2479       H  0.90425719  0.64020711  0.91798995     0.10800
H2480       H  0.92864286  0.56267257  0.85509965     0.16600
C2481       C  0.65119725  0.86793874  0.83969610    -0.01600
C2482       C  0.64053823  0.86529015  0.87819714     0.07000
C2483       C  0.64915345  0.84506740  0.89966856    -0.07600
C2484       C  0.66820580  0.82746659  0.88330300     0.04400
C2485       C  0.67917572  0.83010978  0.84459798    -0.14800
C2486       C  0.67052248  0.85057045  0.82338248    -0.08100
C2487       C  0.62048756  0.88358382  0.89652501     0.05400
C2488       C  0.58839592  0.88028586  0.89638196    -0.09200
C2489       C  0.56863950  0.89777970  0.91169028     0.00400
C2490       C  0.58106266  0.91905796  0.92752526     0.00200
C2491       C  0.61331206  0.92210510  0.92803129    -0.12800
C2492       C  0.63299803  0.90453784  0.91292305     0.00700
C2493       C  0.53572460  0.89405442  0.90882583     0.40000
C2494       C  0.66597465  0.90824171  0.91469868     0.36600
C2495       C  0.64184589  0.88802612  0.81605888     0.36400
C2496       C  0.67648123  0.80725406  0.90733535     0.37100
N2497       N  0.50931585  0.89123705  0.90650782    -0.43700
N2498       N  0.69241853  0.91107090  0.91624549    -0.44100
N2499       N  0.68289239  0.79112913  0.92687399    -0.41500
N2500       N  0.63416139  0.90405542  0.79707071    -0.42900
H2501       H  0.67814305  0.85271130  0.79349317     0.13300
H2502       H  0.64097138  0.84307268  0.92935203     0.09700
H2503       H  0.57876388  0.86420941  0.88354607     0.10800
H2504       H  0.62318184  0.93823556  0.94040367     0.16600
C2505       C  0.91244744  0.88346382  0.60827071    -0.01600
C2506       C  0.88006307  0.88565697  0.60568821     0.07000
C2507       C  0.86738103  0.90570668  0.58723461    -0.07600
C2508       C  0.88638547  0.92363188  0.57171539     0.04400
C2509       C  0.91882672  0.92180614  0.57509776    -0.14800
C2510       C  0.93151979  0.90147646  0.59298887    -0.08100
C2511       C  0.85889570  0.86769391  0.62313595     0.05400
C2512       C  0.84154025  0.87409732  0.65595184    -0.09200
C2513       C  0.82209528  0.85752739  0.67447753     0.00400
C2514       C  0.81970238  0.83385987  0.65994336     0.00200
C2515       C  0.83634870  0.82792908  0.62596680    -0.12800
C2516       C  0.85572572  0.84454108  0.60761546     0.00700
C2517       C  0.80581069  0.86531256  0.70888604     0.40000
C2518       C  0.87196030  0.83744460  0.57276923     0.36600
C2519       C  0.92658840  0.86312820  0.62703299     0.36400
C2520       C  0.87194129  0.94304383  0.55085997     0.37100
N2521       N  0.79270707  0.87156597  0.73641688    -0.43700
N2522       N  0.88492961  0.83164294  0.54488455    -0.41700
N2523       N  0.86003358  0.95835237  0.53390325    -0.41500
N2524       N  0.93797125  0.84677188  0.64185508    -0.42900
H2525       H  0.95638031  0.89984838  0.59558882     0.13300
H2526       H  0.84250146  0.90723868  0.58471568     0.09700
H2527       H  0.84371116  0.89204968  0.66761355     0.10800
H2528       H  0.83453566  0.81012068  0.61367838     0.16600
loop_ 
_geom_bond_atom_site_label_1 
_geom_bond_atom_site_label_2 
_geom_bond_distance 
_geom_bond_site_symmetry_2 
_ccdc_geom_bond_type 
O1          Zr13   2.428       .  S
O1            C3   1.285       .  A
O2        Zr1619   2.417       .  S
O2            C3   1.286       .  A
C3          C297   1.471       .  S
O4         Zr648   2.445       .  S
O4            C6   1.289       .  A
O5         Zr356   2.424       .  S
O5            C6   1.286       .  A
C6          C254   1.491       .  S
O7          Zr16   2.431       .  S
O7            C9   1.286       .  A
O8        Zr1303   2.419       .  S
O8            C9   1.286       .  A
C9          C225   1.483       .  S
O10        Zr645   2.437       .  S
O10          C12   1.287       .  A
O11         Zr40   2.439   1_554  S
O11          C12   1.288       .  A
C12         C201   1.481       .  S
Zr13        O642   2.443       .  S
Zr13         O14   2.427       .  S
Zr13        O647   2.434       .  S
Zr13         O19   2.375   1_554  S
Zr13        O652   2.368   1_554  S
Zr13        O675   2.362       .  S
Zr13       O1309   2.368       .  S
O14          H57   0.990       .  S
O15        Zr645   2.433       .  S
O15         H688   0.990       .  S
O15         H692   0.990       .  S
Zr16        O636   2.441       .  S
Zr16         O17   2.436       .  S
Zr16        O650   2.434       .  S
Zr16        O968   2.361       .  S
Zr16        O335   2.372       .  S
Zr16       O1308   2.372       .  S
Zr16        O678   2.370       .  S
O17          H61   0.990       .  S
O17         H690   0.990       .  S
O18        Zr648   2.434       .  S
O18         H683   0.990   1_545  S
O19        Zr332   2.371       .  S
O19       Zr1619   2.382   1_556  S
O20         Zr40   2.381       .  S
O20        Zr645   2.369   1_556  S
O20        Zr964   2.365       .  S
O20         H363   0.966       .  S
O21         Zr33   2.456       .  S
O21          C23   1.291       .  A
O22       Zr1304   2.418   1_554  S
O22          C23   1.285       .  A
C23         C129   1.490       .  S
O24        Zr668   2.433       .  S
O24          C26   1.288       .  A
O25         Zr39   2.427       .  S
O25          C26   1.287       .  A
C26         C278   1.487       .  S
O27         Zr36   2.445       .  S
O27          C29   1.289       .  A
O28       Zr1620   2.435       .  S
O28          C29   1.289       .  A
C29         C158   1.486       .  S
O30        Zr665   2.444       .  S
O30          C32   1.290       .  A
O31        Zr355   2.433   1_455  S
O31          C32   1.288       .  A
C32         C177   1.496       .  S
Zr33        O662   2.439   1_545  S
Zr33         O34   2.438       .  S
Zr33         O35   2.435       .  S
Zr33        O357   2.367       .  S
Zr33        O990   2.375   1_545  S
Zr33        O677   2.372   1_445  S
Zr33       O1307   2.371   1_455  S
O34          H54   0.991       .  S
O34          H59   0.990       .  S
O35          H55   0.990       .  S
Zr36        O656   2.454   1_545  S
Zr36         O37   2.434       .  S
Zr36         O38   2.435   1_545  S
Zr36         O41   2.372       .  S
Zr36        O674   2.366   1_545  S
Zr36       O1310   2.378       .  S
Zr36        O676   2.363   1_545  S
O37         H685   0.990   1_545  S
O38          H52   0.990   1_565  S
O38          H62   0.990       .  S
Zr39       O1582   2.424   1_455  S
Zr39       O1272   2.433   1_455  S
Zr39        O347   2.443       .  S
Zr39         O42   2.380       .  S
Zr39         O44   2.390       .  S
Zr39       O1599   2.384   1_455  S
Zr39        O361   2.391   1_455  S
Zr40        O321   2.411       .  S
Zr40       O1286   2.424   1_556  S
Zr40       O1608   2.415       .  S
Zr40         O43   2.380   1_556  S
Zr40       O1621   2.382   1_556  S
Zr40        O362   2.386       .  S
O41        Zr349   2.369       .  S
O41       Zr1620   2.394       .  S
O41         H365   0.967       .  S
O42        Zr981   2.375       .  S
O42        Zr668   2.371       .  S
O43        Zr645   2.370       .  S
O43       Zr1297   2.375       .  S
O44       Zr1280   2.376   1_455  S
O44        Zr668   2.367       .  S
O44          H48   0.966       .  S
O45       Zr1277   2.374       .  S
O45        Zr665   2.375   1_655  S
O45        Zr355   2.388       .  S
O45          H50   0.966       .  S
O46        Zr648   2.371       .  S
O46       Zr1300   2.375       .  S
O46        Zr356   2.382       .  S
H47         O336   0.966       .  S
H49         O357   0.967       .  S
H51         O650   0.990       .  S
H53         O669   0.990       .  S
H56         O647   0.990       .  S
H58         O649   0.990       .  S
H60         O647   0.990       .  S
O63         Zr75   2.429       .  S
O63          C65   1.287       .  A
O64        Zr101   2.427       .  S
O64          C65   1.287       .  A
C65         C230   1.478       .  S
O66         Zr78   2.442       .  S
O66          C68   1.287       .  A
O67        Zr102   2.431       .  S
O67          C68   1.289       .  A
C68         C206   1.496       .  S
O69         Zr78   2.439       .  S
O69          C71   1.288       .  A
O70        Zr101   2.426       .  S
O70          C71   1.287       .  A
C71         C302   1.493       .  S
O72         Zr75   2.434       .  S
O72          C74   1.287       .  A
O73        Zr102   2.429       .  S
O73          C74   1.287       .  A
C74         C249   1.485       .  S
Zr75         O76   2.434       .  S
Zr75         O77   2.435       .  S
Zr75         O81   2.370       .  S
Zr75         O82   2.369       .  S
Zr75        O105   2.366       .  S
Zr75        O107   2.371       .  S
O76         H119   0.990       .  S
O77         H118   0.990       .  S
O77         H122   0.990       .  S
Zr78         O79   2.436       .  S
Zr78         O80   2.434       .  S
Zr78         O82   2.370       .  S
Zr78         O81   2.370       .  S
Zr78        O106   2.369       .  S
Zr78        O108   2.371       .  S
O79         H120   0.990       .  S
O79         H123   0.990       .  S
O80         H113   0.990       .  S
O81        Zr101   2.380       .  S
O82        Zr102   2.383       .  S
O82         H109   0.967       .  S
O83         Zr95   2.448       .  S
O83          C85   1.290       .  A
O84        Zr102   2.420       .  S
O84          C85   1.286       .  A
C85         C153   1.493       .  S
O86         Zr98   2.438       .  S
O86          C88   1.288       .  A
O87        Zr101   2.435       .  S
O87          C88   1.289       .  A
C88         C182   1.483       .  S
O89         Zr98   2.437       .  S
O89          C91   1.288       .  A
O90        Zr102   2.431       .  S
O90          C91   1.288       .  A
C91         C134   1.487       .  S
O92         Zr95   2.449       .  S
O92          C94   1.289       .  A
O93        Zr101   2.430       .  S
O93          C94   1.289       .  A
C94         C273   1.490       .  S
Zr95         O96   2.434       .  S
Zr95         O97   2.435       .  S
Zr95        O103   2.372       .  S
Zr95        O104   2.372       .  S
Zr95        O107   2.368       .  S
Zr95        O105   2.373       .  S
O96         H116   0.990       .  S
O96         H121   0.990       .  S
O97         H117   0.990       .  S
Zr98         O99   2.432       .  S
Zr98        O100   2.434       .  S
Zr98        O104   2.369       .  S
Zr98        O103   2.367       .  S
Zr98        O108   2.371       .  S
Zr98        O106   2.371       .  S
O99         H115   0.990       .  S
O100        H114   0.991       .  S
O100        H124   0.990       .  S
Zr101       O104   2.376       .  S
Zr101       O106   2.386       .  S
Zr101       O107   2.387       .  S
Zr102       O103   2.385       .  S
Zr102       O105   2.387       .  S
Zr102       O108   2.383       .  S
O103        H111   0.967       .  S
O106        H110   0.966       .  S
O107        H112   0.966       .  S
C125        C126   1.409       .  A
C125        C130   1.402       .  A
C125        C139   1.444       .  S
C126        C131   1.484       .  S
C126        C127   1.400       .  A
C127        C128   1.399       .  A
C127        H146   1.085       .  S
C128        C129   1.420       .  A
C128        C140   1.443       .  S
C129        C130   1.408       .  A
C130        H145   1.084       .  S
C131        C132   1.403       .  A
C131        C136   1.408       .  A
C132        C133   1.402       .  A
C132        H147   1.085       .  S
C133        C134   1.416       .  A
C133        C137   1.444       .  S
C134        C135   1.409       .  A
C135        C136   1.398       .  A
C135        H148   1.085       .  S
C136        C138   1.444       .  S
C137        N141   1.157       .  T
C138        N142   1.157       .  T
C139        N144   1.157       .  T
C140        N459   1.157   1_554  T
N143        C456   1.157       .  T
C149        C150   1.408       .  A
C149        C154   1.399       .  A
C149        C163   1.443       .  S
C150        C155   1.486       .  S
C150        C151   1.402       .  A
C151        C152   1.403       .  A
C151        H170   1.085       .  S
C152        C153   1.420       .  A
C152        C164   1.444       .  S
C153        C154   1.408       .  A
C154        H169   1.084       .  S
C155        C156   1.404       .  A
C155        C160   1.409       .  A
C156        C157   1.402       .  A
C156        H171   1.085       .  S
C157        C158   1.414       .  A
C157        C161   1.444       .  S
C158        C159   1.407       .  A
C159        C160   1.402       .  A
C159        H172   1.085       .  S
C160        C162   1.444       .  S
C161        N165   1.157       .  T
C162        N166   1.157       .  T
C163        N168   1.157       .  T
C164        N167   1.157       .  T
C173        C174   1.408       .  A
C173        C178   1.400       .  A
C173        C187   1.444       .  S
C174        C179   1.486       .  S
C174        C175   1.402       .  A
C175        C176   1.404       .  A
C175        H194   1.085       .  S
C176        C177   1.420       .  A
C176        C188   1.444       .  S
C177        C178   1.410       .  A
C178        H193   1.084       .  S
C179        C180   1.400       .  A
C179        C184   1.411       .  A
C180        C181   1.400       .  A
C180        H195   1.085       .  S
C181        C182   1.415       .  A
C181        C185   1.444       .  S
C182        C183   1.405       .  A
C183        C184   1.404       .  A
C183        H196   1.085       .  S
C184        C186   1.443       .  S
C185        N189   1.157       .  T
C186        N190   1.157       .  T
C187        N192   1.157       .  T
C188        N507   1.157       .  T
N191        C504   1.156       .  T
C197        C198   1.412       .  A
C197        C202   1.404       .  A
C197        C211   1.443       .  S
C198        C203   1.486       .  S
C198        C199   1.401       .  A
C199        C200   1.400       .  A
C199        H218   1.085       .  S
C200        C201   1.415       .  A
C200        C212   1.444       .  S
C201        C202   1.403       .  A
C202        H217   1.085       .  S
C203        C204   1.400       .  A
C203        C208   1.409       .  A
C204        C205   1.403       .  A
C204        H219   1.085       .  S
C205        C206   1.422       .  A
C205        C209   1.444       .  S
C206        C207   1.409       .  A
C207        C208   1.401       .  A
C207        H220   1.084       .  S
C208        C210   1.444       .  S
C209        N213   1.157       .  T
C210        N214   1.157       .  T
C211        N216   1.157       .  T
C212        N215   1.157       .  T
C221        C222   1.408       .  A
C221        C226   1.397       .  A
C221        C235   1.444       .  S
C222        C227   1.477       .  S
C222        C223   1.399       .  A
C223        C224   1.399       .  A
C223        H242   1.085       .  S
C224        C225   1.418       .  A
C224        C236   1.445       .  S
C225        C226   1.407       .  A
C226        H241   1.085       .  S
C227        C228   1.402       .  A
C227        C232   1.408       .  A
C228        C229   1.400       .  A
C228        H243   1.085       .  S
C229        C230   1.413       .  A
C229        C233   1.444       .  S
C230        C231   1.406       .  A
C231        C232   1.397       .  A
C231        H244   1.085       .  S
C232        C234   1.444       .  S
C233        N237   1.157       .  T
C234        N238   1.157       .  T
C235        N240   1.157       .  T
C236        N239   1.157       .  T
C245        C246   1.409       .  A
C245        C250   1.397       .  A
C245        C259   1.444       .  S
C246        C251   1.485       .  S
C246        C247   1.404       .  A
C247        C248   1.403       .  A
C247        H266   1.085       .  S
C248        C249   1.415       .  A
C248        C260   1.444       .  S
C249        C250   1.407       .  A
C250        H265   1.085       .  S
C251        C252   1.401       .  A
C251        C256   1.409       .  A
C252        C253   1.399       .  A
C252        H267   1.085       .  S
C253        C254   1.419       .  A
C253        C257   1.444       .  S
C254        C255   1.409       .  A
C255        C256   1.401       .  A
C255        H268   1.084       .  S
C256        C258   1.444       .  S
C257        N577   1.157       .  T
C258        N262   1.157       .  T
C259        N264   1.157       .  T
C260        N263   1.157       .  T
N261        C573   1.157       .  T
C269        C270   1.409       .  A
C269        C274   1.401       .  A
C269        C283   1.444       .  S
C270        C275   1.487       .  S
C270        C271   1.402       .  A
C271        C272   1.404       .  A
C271        H290   1.085       .  S
C272        C273   1.418       .  A
C272        C284   1.444       .  S
C273        C274   1.407       .  A
C274        H289   1.085       .  S
C275        C276   1.404       .  A
C275        C280   1.409       .  A
C276        C277   1.405       .  A
C276        H291   1.085       .  S
C277        C278   1.416       .  A
C277        C281   1.445       .  S
C278        C279   1.406       .  A
C279        C280   1.397       .  A
C279        H292   1.085       .  S
C280        C282   1.444       .  S
C281        N285   1.158       .  T
C282        N286   1.157       .  T
C283        N288   1.157       .  T
C284        N287   1.157       .  T
C293        C294   1.411       .  A
C293        C298   1.397       .  A
C293        C307   1.443       .  S
C294        C299   1.479       .  S
C294        C295   1.401       .  A
C295        C296   1.398       .  A
C295        H314   1.085       .  S
C296        C297   1.413       .  A
C296        C308   1.444       .  S
C297        C298   1.402       .  A
C298        H313   1.085       .  S
C299        C300   1.400       .  A
C299        C304   1.405       .  A
C300        C301   1.402       .  A
C300        H315   1.085       .  S
C301        C302   1.421       .  A
C301        C305   1.444       .  S
C302        C303   1.411       .  A
C303        C304   1.397       .  A
C303        H316   1.084       .  S
C304        C306   1.445       .  S
C305        N309   1.157       .  T
C306        N310   1.157       .  T
C307        N312   1.157       .  T
C308        N311   1.157       .  T
O317       Zr329   2.439       .  S
O317        C319   1.287       .  A
O318      Zr1303   2.420       .  S
O318        C319   1.285       .  A
C319        C613   1.477       .  S
O320       Zr964   2.447       .  S
O320        C322   1.290       .  A
O321        C322   1.284       .  A
C322        C570   1.487       .  S
O323       Zr332   2.435       .  S
O323        C325   1.286       .  A
O324      Zr1619   2.426   1_556  S
O324        C325   1.288       .  A
C325        C541   1.489       .  S
O326       Zr961   2.439       .  S
O326        C328   1.287       .  A
O327       Zr356   2.433       .  S
O327        C328   1.288       .  A
C328        C517   1.482       .  S
Zr329       O958   2.442       .  S
Zr329       O330   2.429       .  S
Zr329       O963   2.435       .  S
Zr329       O335   2.369       .  S
Zr329       O968   2.368       .  S
Zr329       O991   2.373       .  S
Zr329      O1625   2.368       .  S
O330        H373   0.990       .  S
O331       Zr961   2.435       .  S
O331       H1004   0.991   1_545  S
O331       H1008   0.990       .  S
Zr332       O952   2.443       .  S
Zr332       O333   2.435       .  S
Zr332       O966   2.436       .  S
Zr332       O652   2.368       .  S
Zr332      O1624   2.371       .  S
Zr332       O994   2.367       .  S
O333       H1006   0.990       .  S
O333        H377   0.990       .  S
O334       Zr964   2.435       .  S
O334        H999   0.990   1_545  S
O335      Zr1303   2.378       .  S
O336       Zr961   2.366       .  S
O336       Zr648   2.363       .  S
O336       Zr356   2.377       .  S
O337       Zr349   2.454       .  S
O337        C339   1.290       .  A
O338      Zr1620   2.419       .  S
O338        C339   1.285       .  A
C339        C445   1.492       .  S
O340       Zr984   2.436       .  S
O340        C342   1.288       .  A
O341       Zr355   2.427   1_456  S
O341        C342   1.287       .  A
C342        C594   1.482       .  S
O343       Zr352   2.422       .  S
O343        C345   1.284       .  A
O344      Zr1304   2.428       .  S
O344        C345   1.287       .  A
C345        C474   1.474       .  S
O346       Zr981   2.437       .  S
O346        C348   1.288       .  A
O347        C348   1.290       .  A
C348        C493   1.497       .  S
Zr349       O978   2.443   1_545  S
Zr349       O350   2.438       .  S
Zr349       O351   2.434       .  S
Zr349       O674   2.372   1_545  S
Zr349       O993   2.374   1_445  S
Zr349      O1623   2.374   1_455  S
O350        H370   0.990       .  S
O350        H375   0.990       .  S
O351        H371   0.990       .  S
Zr352       O972   2.432   1_545  S
Zr352       O353   2.434       .  S
Zr352       O354   2.435       .  S
Zr352       O990   2.366   1_546  S
Zr352       O357   2.370   1_556  S
Zr352      O1626   2.373       .  S
Zr352       O992   2.369   1_545  S
O353       H1001   0.990   1_545  S
O354        H368   0.990       .  S
O354        H378   0.990       .  S
Zr355      O1266   2.424       .  S
Zr355      O1588   2.425   1_554  S
Zr355      O1283   2.382   1_554  S
Zr355       O358   2.378   1_655  S
Zr355       O360   2.385   1_654  S
Zr356      O1602   2.413       .  S
Zr356      O1292   2.429       .  S
Zr356      O1305   2.389       .  S
Zr356       O359   2.387       .  S
O357      Zr1304   2.382   1_554  S
O358       Zr665   2.372       .  S
O358       Zr984   2.367   1_554  S
O359       Zr961   2.374       .  S
O359      Zr1613   2.373       .  S
O360      Zr1596   2.370   1_455  S
O360       Zr984   2.366       .  S
O360        H364   0.966       .  S
O361      Zr1593   2.373       .  S
O361       Zr981   2.376   1_655  S
O361        H366   0.966       .  S
O362       Zr964   2.369       .  S
O362      Zr1616   2.372       .  S
H367        O966   0.989       .  S
H369        O985   0.990       .  S
H372        O963   0.991       .  S
H374        O965   0.990       .  S
H376        O963   0.990       .  S
O379       Zr391   2.433       .  S
O379        C381   1.287       .  A
O380       Zr417   2.432       .  S
O380        C381   1.288       .  A
C381        C546   1.486       .  S
O382       Zr394   2.442       .  S
O382        C384   1.287       .  A
O383       Zr418   2.429       .  S
O383        C384   1.288       .  A
C384        C522   1.494       .  S
O385       Zr394   2.419       .  S
O385        C387   1.285       .  A
O386       Zr417   2.427       .  S
O386        C387   1.287       .  A
C387        C618   1.487       .  S
O388       Zr391   2.431       .  S
O388        C390   1.287       .  A
O389       Zr418   2.428       .  S
O389        C390   1.287       .  A
C390        C565   1.484       .  S
Zr391       O392   2.434       .  S
Zr391       O393   2.437       .  S
Zr391       O397   2.367       .  S
Zr391       O398   2.372       .  S
Zr391       O421   2.371       .  S
Zr391       O423   2.372       .  S
O392        H435   0.990       .  S
O393        H434   0.990       .  S
O393        H438   0.990       .  S
Zr394       O395   2.436       .  S
Zr394       O396   2.433       .  S
Zr394       O398   2.364       .  S
Zr394       O397   2.372       .  S
Zr394       O422   2.373       .  S
Zr394       O424   2.367       .  S
O395        H436   0.990       .  S
O395        H439   0.990       .  S
O396        H429   0.990       .  S
O397       Zr417   2.379       .  S
O398       Zr418   2.381       .  S
O398        H425   0.968       .  S
O399       Zr411   2.432       .  S
O399        C401   1.286       .  A
O400       Zr418   2.421       .  S
O400        C401   1.286       .  A
C401        C469   1.485       .  S
O402       Zr414   2.453       .  S
O402        C404   1.291       .  A
O403       Zr417   2.425       .  S
O403        C404   1.287       .  A
C404        C498   1.488       .  S
O405       Zr414   2.438       .  S
O405        C407   1.288       .  A
O406       Zr418   2.427       .  S
O406        C407   1.287       .  A
C407        C450   1.483       .  S
O408       Zr411   2.429       .  S
O408        C410   1.286       .  A
O409       Zr417   2.428       .  S
O409        C410   1.288       .  A
C410        C589   1.486       .  S
Zr411       O412   2.437       .  S
Zr411       O413   2.435       .  S
Zr411       O419   2.368       .  S
Zr411       O420   2.369       .  S
Zr411       O423   2.370       .  S
Zr411       O421   2.369       .  S
O412        H432   0.990       .  S
O412        H437   0.990       .  S
O413        H433   0.990       .  S
Zr414       O415   2.433       .  S
Zr414       O416   2.435       .  S
Zr414       O420   2.366       .  S
Zr414       O419   2.370       .  S
Zr414       O424   2.373       .  S
Zr414       O422   2.366       .  S
O415        H431   0.990       .  S
O416        H430   0.990       .  S
O416        H440   0.990       .  S
Zr417       O420   2.378       .  S
Zr417       O422   2.386       .  S
Zr417       O423   2.386       .  S
Zr418       O419   2.385       .  S
Zr418       O421   2.386       .  S
Zr418       O424   2.380       .  S
O419        H427   0.967       .  S
O422        H426   0.966       .  S
O423        H428   0.965       .  S
C441        C442   1.409       .  A
C441        C446   1.401       .  A
C441        C455   1.444       .  S
C442        C447   1.485       .  S
C442        C443   1.401       .  A
C443        C444   1.399       .  A
C443        H462   1.085       .  S
C444        C445   1.420       .  A
C444        C456   1.444       .  S
C445        C446   1.409       .  A
C446        H461   1.084       .  S
C447        C448   1.404       .  A
C447        C452   1.410       .  A
C448        C449   1.403       .  A
C448        H463   1.085       .  S
C449        C450   1.415       .  A
C449        C453   1.444       .  S
C450        C451   1.406       .  A
C451        C452   1.396       .  A
C451        H464   1.085       .  S
C452        C454   1.444       .  S
C453        N457   1.157       .  T
C454        N458   1.157       .  T
C455        N460   1.157       .  T
C465        C466   1.405       .  A
C465        C470   1.397       .  A
C465        C479   1.445       .  S
C466        C471   1.476       .  S
C466        C467   1.400       .  A
C467        C468   1.398       .  A
C467        H486   1.085       .  S
C468        C469   1.418       .  A
C468        C480   1.444       .  S
C469        C470   1.410       .  A
C470        H485   1.085       .  S
C471        C472   1.403       .  A
C471        C476   1.406       .  A
C472        C473   1.400       .  A
C472        H487   1.085       .  S
C473        C474   1.411       .  A
C473        C477   1.444       .  S
C474        C475   1.406       .  A
C475        C476   1.396       .  A
C475        H488   1.085       .  S
C476        C478   1.445       .  S
C477        N481   1.157       .  T
C478        N482   1.157       .  T
C479        N484   1.157       .  T
C480        N483   1.157       .  T
C489        C490   1.409       .  A
C489        C494   1.402       .  A
C489        C503   1.444       .  S
C490        C495   1.489       .  S
C490        C491   1.402       .  A
C491        C492   1.402       .  A
C491        H510   1.085       .  S
C492        C493   1.417       .  A
C492        C504   1.441       .  S
C493        C494   1.411       .  A
C494        H509   1.085       .  S
C495        C496   1.401       .  A
C495        C500   1.412       .  A
C496        C497   1.400       .  A
C496        H511   1.085       .  S
C497        C498   1.415       .  A
C497        C501   1.443       .  S
C498        C499   1.408       .  A
C499        C500   1.405       .  A
C499        H512   1.085       .  S
C500        C502   1.444       .  S
C501        N505   1.157       .  T
C502        N506   1.157       .  T
C503        N508   1.157       .  T
C513        C514   1.411       .  A
C513        C518   1.403       .  A
C513        C527   1.443       .  S
C514        C519   1.483       .  S
C514        C515   1.399       .  A
C515        C516   1.399       .  A
C515        H534   1.085       .  S
C516        C517   1.416       .  A
C516        C528   1.444       .  S
C517        C518   1.404       .  A
C518        H533   1.085       .  S
C519        C520   1.400       .  A
C519        C524   1.409       .  A
C520        C521   1.401       .  A
C520        H535   1.085       .  S
C521        C522   1.420       .  A
C521        C525   1.444       .  S
C522        C523   1.409       .  A
C523        C524   1.400       .  A
C523        H536   1.084       .  S
C524        C526   1.444       .  S
C525        N529   1.157       .  T
C526        N530   1.157       .  T
C527        N532   1.157       .  T
C528        N531   1.157       .  T
C537        C538   1.410       .  A
C537        C542   1.401       .  A
C537        C551   1.444       .  S
C538        C543   1.485       .  S
C538        C539   1.400       .  A
C539        C540   1.400       .  A
C539        H558   1.085       .  S
C540        C541   1.419       .  A
C540        C552   1.444       .  S
C541        C542   1.408       .  A
C542        H557   1.085       .  S
C543        C544   1.404       .  A
C543        C548   1.408       .  A
C544        C545   1.404       .  A
C544        H559   1.085       .  S
C545        C546   1.415       .  A
C545        C549   1.444       .  S
C546        C547   1.408       .  A
C547        C548   1.398       .  A
C547        H560   1.085       .  S
C548        C550   1.445       .  S
C549        N553   1.158       .  T
C550        N554   1.157       .  T
C551        N556   1.157       .  T
C552        N555   1.157       .  T
C561        C562   1.410       .  A
C561        C566   1.397       .  A
C561        C575   1.445       .  S
C562        C567   1.487       .  S
C562        C563   1.405       .  A
C563        C564   1.401       .  A
C563        H582   1.085       .  S
C564        C565   1.414       .  A
C564        C576   1.444       .  S
C565        C566   1.407       .  A
C566        H581   1.085       .  S
C567        C568   1.402       .  A
C567        C572   1.411       .  A
C568        C569   1.398       .  A
C568        H583   1.085       .  S
C569        C570   1.419       .  A
C569        C573   1.445       .  S
C570        C571   1.407       .  A
C571        C572   1.400       .  A
C571        H584   1.085       .  S
C572        C574   1.444       .  S
C574        N578   1.157       .  T
C575        N580   1.157       .  T
C576        N579   1.157       .  T
C585        C586   1.410       .  A
C585        C590   1.398       .  A
C585        C599   1.443       .  S
C586        C591   1.482       .  S
C586        C587   1.400       .  A
C587        C588   1.401       .  A
C587        H606   1.085       .  S
C588        C589   1.419       .  A
C588        C600   1.445       .  S
C589        C590   1.406       .  A
C590        H605   1.085       .  S
C591        C592   1.404       .  A
C591        C596   1.407       .  A
C592        C593   1.404       .  A
C592        H607   1.085       .  S
C593        C594   1.415       .  A
C593        C597   1.445       .  S
C594        C595   1.405       .  A
C595        C596   1.397       .  A
C595        H608   1.085       .  S
C596        C598   1.444       .  S
C597        N601   1.158       .  T
C598        N602   1.157       .  T
C599        N604   1.157       .  T
C600        N603   1.157       .  T
C609        C610   1.410       .  A
C609        C614   1.400       .  A
C609        C623   1.444       .  S
C610        C615   1.479       .  S
C610        C611   1.400       .  A
C611        C612   1.399       .  A
C611        H630   1.085       .  S
C612        C613   1.413       .  A
C612        C624   1.444       .  S
C613        C614   1.403       .  A
C614        H629   1.085       .  S
C615        C616   1.402       .  A
C615        C620   1.406       .  A
C616        C617   1.402       .  A
C616        H631   1.085       .  S
C617        C618   1.417       .  A
C617        C621   1.444       .  S
C618        C619   1.410       .  A
C619        C620   1.395       .  A
C619        H632   1.085       .  S
C620        C622   1.444       .  S
C621        N625   1.157       .  T
C622        N626   1.157       .  T
C623        N628   1.157       .  T
C624        N627   1.157       .  T
O633       Zr645   2.431   1_565  S
O633        C635   1.285       .  A
O634      Zr2251   2.422   1_554  S
O634        C635   1.286       .  A
C635        C929   1.474       .  S
O636        C638   1.288       .  A
O637       Zr988   2.430       .  S
O637        C638   1.287       .  A
C638        C886   1.491       .  S
O639       Zr648   2.442   1_565  S
O639        C641   1.289       .  A
O640      Zr1935   2.422       .  S
O640        C641   1.287       .  A
C641        C857   1.489       .  S
O642        C644   1.288       .  A
O643       Zr672   2.435       .  S
O643        C644   1.288       .  A
C644        C833   1.487       .  S
Zr645       O646   2.431       .  S
Zr645       O651   2.369   1_544  S
Zr645      O1941   2.370   1_545  S
O646        H689   0.990       .  S
Zr648       O649   2.435       .  S
Zr648       O967   2.371   1_545  S
Zr648      O1940   2.372   1_545  S
O649        H693   0.990       .  S
O651       Zr964   2.369   1_565  S
O651      Zr2251   2.381       .  S
O652       Zr672   2.381   1_556  S
O652        H995   0.966       .  S
O653       Zr665   2.451       .  S
O653        C655   1.290       .  A
O654      Zr1936   2.424   1_554  S
O654        C655   1.286       .  A
C655        C761   1.495       .  S
O656        C658   1.291       .  A
O657       Zr671   2.419       .  S
O657        C658   1.285       .  A
C658        C910   1.493       .  S
O659       Zr668   2.431       .  S
O659        C661   1.287       .  A
O660      Zr2252   2.430       .  S
O660        C661   1.287       .  A
C661        C790   1.485       .  S
O662        C664   1.289       .  A
O663       Zr987   2.429       .  S
O663        C664   1.288       .  A
C664        C809   1.490       .  S
Zr665       O666   2.437       .  S
Zr665       O667   2.434       .  S
Zr665       O989   2.368       .  S
Zr665      O1939   2.376   1_455  S
O666        H686   0.990       .  S
O666        H691   0.990       .  S
O667        H687   0.990       .  S
Zr668       O669   2.435       .  S
Zr668       O670   2.433       .  S
Zr668       O673   2.367       .  S
Zr668      O1942   2.371       .  S
O670        H684   0.990       .  S
O670        H694   0.990       .  S
Zr671      O2214   2.424   1_455  S
Zr671      O1904   2.435   1_455  S
Zr671       O979   2.424       .  S
Zr671      O2231   2.376   1_455  S
Zr671       O674   2.382       .  S
Zr671       O676   2.384       .  S
Zr671       O993   2.389   1_455  S
Zr672       O953   2.414   1_554  S
Zr672      O1918   2.422       .  S
Zr672      O2240   2.416   1_554  S
Zr672      O2253   2.382       .  S
Zr672       O675   2.378       .  S
Zr672       O994   2.386   1_554  S
O673       Zr981   2.370       .  S
O673      Zr2252   2.380       .  S
O673        H997   0.967       .  S
O675      Zr1929   2.376       .  S
O676      Zr1912   2.373   1_465  S
O676        H680   0.966       .  S
O677      Zr1909   2.373   1_565  S
O677       Zr987   2.392   1_655  S
O677        H682   0.966       .  S
O678      Zr1932   2.377       .  S
O678       Zr988   2.386       .  S
H679        O968   0.966       .  S
H681        O989   0.967       .  S
O695       Zr707   2.441       .  S
O695        C697   1.288       .  A
O696       Zr733   2.429       .  S
O696        C697   1.288       .  A
C697        C862   1.486       .  S
O698       Zr710   2.445       .  S
O698        C700   1.288       .  A
O699       Zr734   2.428       .  S
O699        C700   1.288       .  A
C700        C838   1.493       .  S
O701       Zr710   2.436       .  S
O701        C703   1.288       .  A
O702       Zr733   2.421       .  S
O702        C703   1.286       .  A
C703        C934   1.491       .  S
O704       Zr707   2.436       .  S
O704        C706   1.288       .  A
O705       Zr734   2.429       .  S
O705        C706   1.287       .  A
C706        C881   1.484       .  S
Zr707       O708   2.434       .  S
Zr707       O709   2.435       .  S
Zr707       O713   2.370       .  S
Zr707       O714   2.370       .  S
Zr707       O737   2.373       .  S
Zr707       O739   2.368       .  S
O708        H751   0.990       .  S
O709        H750   0.991       .  S
O709        H754   0.990       .  S
Zr710       O711   2.435       .  S
Zr710       O712   2.433       .  S
Zr710       O714   2.370       .  S
Zr710       O713   2.372       .  S
Zr710       O738   2.373       .  S
Zr710       O740   2.369       .  S
O711        H752   0.990       .  S
O711        H755   0.990       .  S
O712        H745   0.990       .  S
O713       Zr733   2.381       .  S
O714       Zr734   2.383       .  S
O714        H741   0.967       .  S
O715       Zr727   2.448       .  S
O715        C717   1.289       .  A
O716       Zr734   2.424       .  S
O716        C717   1.286       .  A
C717        C785   1.493       .  S
O718       Zr730   2.442       .  S
O718        C720   1.288       .  A
O719       Zr733   2.432       .  S
O719        C720   1.288       .  A
C720        C814   1.485       .  S
O721       Zr730   2.441       .  S
O721        C723   1.289       .  A
O722       Zr734   2.424       .  S
O722        C723   1.286       .  A
C723        C766   1.485       .  S
O724       Zr727   2.435       .  S
O724        C726   1.287       .  A
O725       Zr733   2.424       .  S
O725        C726   1.288       .  A
C726        C905   1.484       .  S
Zr727       O728   2.436       .  S
Zr727       O729   2.434       .  S
Zr727       O735   2.368       .  S
Zr727       O736   2.374       .  S
Zr727       O739   2.372       .  S
Zr727       O737   2.370       .  S
O728        H748   0.990       .  S
O728        H753   0.990       .  S
O729        H749   0.990       .  S
Zr730       O731   2.432       .  S
Zr730       O732   2.435       .  S
Zr730       O736   2.372       .  S
Zr730       O735   2.367       .  S
Zr730       O740   2.373       .  S
Zr730       O738   2.369       .  S
O731        H747   0.990       .  S
O732        H746   0.990       .  S
O732        H756   0.989       .  S
Zr733       O736   2.380       .  S
Zr733       O738   2.384       .  S
Zr733       O739   2.386       .  S
Zr734       O735   2.384       .  S
Zr734       O737   2.384       .  S
Zr734       O740   2.382       .  S
O735        H743   0.967       .  S
O738        H742   0.966       .  S
O739        H744   0.966       .  S
C757        C758   1.408       .  A
C757        C762   1.402       .  A
C757        C771   1.445       .  S
C758        C763   1.485       .  S
C758        C759   1.400       .  A
C759        C760   1.400       .  A
C759        H778   1.085       .  S
C760        C761   1.421       .  A
C760        C772   1.444       .  S
C761        C762   1.411       .  A
C762        H777   1.084       .  S
C763        C764   1.402       .  A
C763        C768   1.409       .  A
C764        C765   1.400       .  A
C764        H779   1.085       .  S
C765        C766   1.416       .  A
C765        C769   1.444       .  S
C766        C767   1.407       .  A
C767        C768   1.400       .  A
C767        H780   1.085       .  S
C768        C770   1.444       .  S
C769        N773   1.157       .  T
C770        N774   1.157       .  T
C771        N776   1.157       .  T
C772       N1091   1.157       .  T
N775       C1088   1.157       .  T
C781        C782   1.410       .  A
C781        C786   1.401       .  A
C781        C795   1.444       .  S
C782        C787   1.487       .  S
C782        C783   1.401       .  A
C783        C784   1.401       .  A
C783        H802   1.085       .  S
C784        C785   1.420       .  A
C784        C796   1.443       .  S
C785        C786   1.409       .  A
C786        H801   1.084       .  S
C787        C788   1.405       .  A
C787        C792   1.409       .  A
C788        C789   1.403       .  A
C788        H803   1.085       .  S
C789        C790   1.414       .  A
C789        C793   1.444       .  S
C790        C791   1.407       .  A
C791        C792   1.397       .  A
C791        H804   1.085       .  S
C792        C794   1.444       .  S
C793        N797   1.158       .  T
C794        N798   1.157       .  T
C795        N800   1.157       .  T
C796        N799   1.157       .  T
C805        C806   1.407       .  A
C805        C810   1.400       .  A
C805        C819   1.444       .  S
C806        C811   1.484       .  S
C806        C807   1.402       .  A
C807        C808   1.402       .  A
C807        H826   1.085       .  S
C808        C809   1.418       .  A
C808        C820   1.444       .  S
C809        C810   1.409       .  A
C810        H825   1.085       .  S
C811        C812   1.399       .  A
C811        C816   1.411       .  A
C812        C813   1.399       .  A
C812        H827   1.085       .  S
C813        C814   1.416       .  A
C813        C817   1.443       .  S
C814        C815   1.406       .  A
C815        C816   1.404       .  A
C815        H828   1.085       .  S
C816        C818   1.444       .  S
C817        N821   1.157       .  T
C818        N822   1.157       .  T
C819        N824   1.157       .  T
C820       N1139   1.157       .  T
N823       C1136   1.157       .  T
C829        C830   1.412       .  A
C829        C834   1.405       .  A
C829        C843   1.443       .  S
C830        C835   1.487       .  S
C830        C831   1.399       .  A
C831        C832   1.398       .  A
C831        H850   1.085       .  S
C832        C833   1.416       .  A
C832        C844   1.443       .  S
C833        C834   1.407       .  A
C834        H849   1.085       .  S
C835        C836   1.401       .  A
C835        C840   1.410       .  A
C836        C837   1.403       .  A
C836        H851   1.085       .  S
C837        C838   1.420       .  A
C837        C841   1.444       .  S
C838        C839   1.408       .  A
C839        C840   1.400       .  A
C839        H852   1.085       .  S
C840        C842   1.444       .  S
C841        N845   1.157       .  T
C842        N846   1.157       .  T
C843        N848   1.157       .  T
C844        N847   1.157       .  T
C853        C854   1.409       .  A
C853        C858   1.400       .  A
C853        C867   1.444       .  S
C854        C859   1.483       .  S
C854        C855   1.400       .  A
C855        C856   1.402       .  A
C855        H874   1.085       .  S
C856        C857   1.417       .  A
C856        C868   1.444       .  S
C857        C858   1.408       .  A
C858        H873   1.085       .  S
C859        C860   1.402       .  A
C859        C864   1.408       .  A
C860        C861   1.402       .  A
C860        H875   1.085       .  S
C861        C862   1.415       .  A
C861        C865   1.444       .  S
C862        C863   1.408       .  A
C863        C864   1.401       .  A
C863        H876   1.085       .  S
C864        C866   1.444       .  S
C865        N869   1.157       .  T
C866        N870   1.157       .  T
C867        N872   1.157       .  T
C868        N871   1.157       .  T
C877        C878   1.408       .  A
C877        C882   1.398       .  A
C877        C891   1.445       .  S
C878        C883   1.485       .  S
C878        C879   1.404       .  A
C879        C880   1.402       .  A
C879        H898   1.085       .  S
C880        C881   1.415       .  A
C880        C892   1.444       .  S
C881        C882   1.407       .  A
C882        H897   1.085       .  S
C883        C884   1.401       .  A
C883        C888   1.407       .  A
C884        C885   1.400       .  A
C884        H899   1.085       .  S
C885        C886   1.418       .  A
C885        C889   1.443       .  S
C886        C887   1.410       .  A
C887        C888   1.401       .  A
C887        H900   1.084       .  S
C888        C890   1.444       .  S
C889       N1209   1.157       .  T
C890        N894   1.157       .  T
C891        N896   1.157       .  T
C892        N895   1.157       .  T
N893       C1205   1.157       .  T
C901        C902   1.411       .  A
C901        C906   1.398       .  A
C901        C915   1.444       .  S
C902        C907   1.487       .  S
C902        C903   1.403       .  A
C903        C904   1.402       .  A
C903        H922   1.085       .  S
C904        C905   1.417       .  A
C904        C916   1.445       .  S
C905        C906   1.404       .  A
C906        H921   1.085       .  S
C907        C908   1.403       .  A
C907        C912   1.409       .  A
C908        C909   1.404       .  A
C908        H923   1.085       .  S
C909        C910   1.420       .  A
C909        C913   1.444       .  S
C910        C911   1.408       .  A
C911        C912   1.398       .  A
C911        H924   1.084       .  S
C912        C914   1.444       .  S
C913        N917   1.158       .  T
C914        N918   1.157       .  T
C915        N920   1.157       .  T
C916        N919   1.157       .  T
C925        C926   1.410       .  A
C925        C930   1.398       .  A
C925        C939   1.443       .  S
C926        C931   1.479       .  S
C926        C927   1.400       .  A
C927        C928   1.400       .  A
C927        H946   1.085       .  S
C928        C929   1.415       .  A
C928        C940   1.445       .  S
C929        C930   1.402       .  A
C930        H945   1.085       .  S
C931        C932   1.400       .  A
C931        C936   1.406       .  A
C932        C933   1.401       .  A
C932        H947   1.085       .  S
C933        C934   1.420       .  A
C933        C937   1.444       .  S
C934        C935   1.410       .  A
C935        C936   1.398       .  A
C935        H948   1.084       .  S
C936        C938   1.444       .  S
C937        N941   1.157       .  T
C938        N942   1.157       .  T
C939        N944   1.157       .  T
C940        N943   1.157       .  T
O949       Zr961   2.439   1_565  S
O949        C951   1.287       .  A
O950      Zr1935   2.418       .  S
O950        C951   1.285       .  A
C951       C1245   1.477       .  S
O952        C954   1.288       .  A
O953        C954   1.284       .  A
C954       C1202   1.489       .  S
O955       Zr964   2.431   1_565  S
O955        C957   1.286       .  A
O956      Zr2251   2.421       .  S
O956        C957   1.287       .  A
C957       C1173   1.486       .  S
O958        C960   1.288       .  A
O959       Zr988   2.436       .  S
O959        C960   1.288       .  A
C960       C1149   1.483       .  S
Zr961       O962   2.427       .  S
Zr961       O967   2.368   1_545  S
Zr961      O2257   2.373   1_545  S
O962       H1005   0.990       .  S
Zr964       O965   2.438       .  S
Zr964      O2256   2.378   1_545  S
O965       H1009   0.990       .  S
O967      Zr1935   2.375       .  S
O968       Zr988   2.381       .  S
O969       Zr981   2.451       .  S
O969        C971   1.290       .  A
O970      Zr2252   2.415       .  S
O970        C971   1.284       .  A
C971       C1077   1.490       .  S
O972        C974   1.286       .  A
O973       Zr987   2.438   1_556  S
O973        C974   1.289       .  A
C974       C1226   1.488       .  S
O975       Zr984   2.435       .  S
O975        C977   1.288       .  A
O976      Zr1936   2.416       .  S
O976        C977   1.285       .  A
C977       C1106   1.475       .  S
O978        C980   1.289       .  A
O979        C980   1.286       .  A
C980       C1125   1.496       .  S
Zr981       O982   2.436       .  S
Zr981       O983   2.435       .  S
Zr981      O2255   2.372   1_455  S
O982       H1002   0.990       .  S
O982       H1007   0.990       .  S
O983       H1003   0.990       .  S
Zr984       O985   2.433       .  S
Zr984       O986   2.433       .  S
Zr984       O989   2.367   1_556  S
Zr984      O2258   2.368       .  S
O986       H1000   0.990       .  S
O986       H1010   0.990       .  S
Zr987      O1898   2.421   1_455  S
Zr987      O2220   2.435   1_454  S
Zr987      O1915   2.382   1_454  S
Zr987       O990   2.378       .  S
Zr987       O992   2.384   1_554  S
Zr988      O2234   2.414       .  S
Zr988      O1924   2.435       .  S
Zr988      O1937   2.390       .  S
Zr988       O991   2.389       .  S
O989      Zr1936   2.384   1_554  S
O991      Zr2245   2.375       .  S
O992      Zr2228   2.373   1_465  S
O992        H996   0.966       .  S
O993      Zr2225   2.370   1_565  S
O993        H998   0.966       .  S
O994      Zr2248   2.372       .  S
O1011     Zr1023   2.434       .  S
O1011      C1013   1.287       .  A
O1012     Zr1049   2.417       .  S
O1012      C1013   1.285       .  A
C1013      C1178   1.478       .  S
O1014     Zr1026   2.445       .  S
O1014      C1016   1.288       .  A
O1015     Zr1050   2.433       .  S
O1015      C1016   1.289       .  A
C1016      C1154   1.493       .  S
O1017     Zr1026   2.439       .  S
O1017      C1019   1.289       .  A
O1018     Zr1049   2.421       .  S
O1018      C1019   1.286       .  A
C1019      C1250   1.492       .  S
O1020     Zr1023   2.434       .  S
O1020      C1022   1.287       .  A
O1021     Zr1050   2.432       .  S
O1021      C1022   1.288       .  A
C1022      C1197   1.486       .  S
Zr1023     O1024   2.434       .  S
Zr1023     O1025   2.435       .  S
Zr1023     O1029   2.368       .  S
Zr1023     O1030   2.368       .  S
Zr1023     O1053   2.374       .  S
Zr1023     O1055   2.374       .  S
O1024      H1067   0.990       .  S
O1025      H1066   0.991       .  S
O1025      H1070   0.990       .  S
Zr1026     O1027   2.437       .  S
Zr1026     O1028   2.435       .  S
Zr1026     O1030   2.369       .  S
Zr1026     O1029   2.373       .  S
Zr1026     O1054   2.371       .  S
Zr1026     O1056   2.369       .  S
O1027      H1068   0.990       .  S
O1027      H1071   0.990       .  S
O1028      H1061   0.990       .  S
O1029     Zr1049   2.377       .  S
O1030     Zr1050   2.381       .  S
O1030      H1057   0.967       .  S
O1031     Zr1043   2.442       .  S
O1031      C1033   1.288       .  A
O1032     Zr1050   2.414       .  S
O1032      C1033   1.284       .  A
C1033      C1101   1.489       .  S
O1034     Zr1046   2.432       .  S
O1034      C1036   1.285       .  A
O1035     Zr1049   2.421       .  S
O1035      C1036   1.285       .  A
C1036      C1130   1.468       .  S
O1037     Zr1046   2.429       .  S
O1037      C1039   1.286       .  A
O1038     Zr1050   2.429       .  S
O1038      C1039   1.287       .  A
C1039      C1082   1.483       .  S
O1040     Zr1043   2.448       .  S
O1040      C1042   1.289       .  A
O1041     Zr1049   2.423       .  S
O1041      C1042   1.287       .  A
C1042      C1221   1.492       .  S
Zr1043     O1044   2.438       .  S
Zr1043     O1045   2.436       .  S
Zr1043     O1051   2.374       .  S
Zr1043     O1052   2.370       .  S
Zr1043     O1055   2.368       .  S
Zr1043     O1053   2.375       .  S
O1044      H1064   0.990       .  S
O1044      H1069   0.990       .  S
O1045      H1065   0.990       .  S
Zr1046     O1047   2.435       .  S
Zr1046     O1048   2.436       .  S
Zr1046     O1052   2.367       .  S
Zr1046     O1051   2.366       .  S
Zr1046     O1056   2.372       .  S
Zr1046     O1054   2.368       .  S
O1047      H1063   0.990       .  S
O1048      H1062   0.991       .  S
O1048      H1072   0.990       .  S
Zr1049     O1052   2.376       .  S
Zr1049     O1054   2.383       .  S
Zr1049     O1055   2.388       .  S
Zr1050     O1051   2.389       .  S
Zr1050     O1053   2.388       .  S
Zr1050     O1056   2.380       .  S
O1051      H1059   0.967       .  S
O1054      H1058   0.966       .  S
O1055      H1060   0.966       .  S
C1073      C1074   1.407       .  A
C1073      C1078   1.400       .  A
C1073      C1087   1.444       .  S
C1074      C1079   1.482       .  S
C1074      C1075   1.400       .  A
C1075      C1076   1.400       .  A
C1075      H1094   1.085       .  S
C1076      C1077   1.421       .  A
C1076      C1088   1.444       .  S
C1077      C1078   1.408       .  A
C1078      H1093   1.084       .  S
C1079      C1080   1.404       .  A
C1079      C1084   1.407       .  A
C1080      C1081   1.402       .  A
C1080      H1095   1.085       .  S
C1081      C1082   1.414       .  A
C1081      C1085   1.444       .  S
C1082      C1083   1.407       .  A
C1083      C1084   1.397       .  A
C1083      H1096   1.085       .  S
C1084      C1086   1.444       .  S
C1085      N1089   1.157       .  T
C1086      N1090   1.157       .  T
C1087      N1092   1.157       .  T
C1097      C1098   1.408       .  A
C1097      C1102   1.398       .  A
C1097      C1111   1.444       .  S
C1098      C1103   1.481       .  S
C1098      C1099   1.401       .  A
C1099      C1100   1.398       .  A
C1099      H1118   1.085       .  S
C1100      C1101   1.420       .  A
C1100      C1112   1.444       .  S
C1101      C1102   1.409       .  A
C1102      H1117   1.084       .  S
C1103      C1104   1.404       .  A
C1103      C1108   1.409       .  A
C1104      C1105   1.400       .  A
C1104      H1119   1.085       .  S
C1105      C1106   1.413       .  A
C1105      C1109   1.444       .  S
C1106      C1107   1.404       .  A
C1107      C1108   1.395       .  A
C1107      H1120   1.085       .  S
C1108      C1110   1.444       .  S
C1109      N1113   1.157       .  T
C1110      N1114   1.157       .  T
C1111      N1116   1.157       .  T
C1112      N1115   1.157       .  T
C1121      C1122   1.409       .  A
C1121      C1126   1.399       .  A
C1121      C1135   1.445       .  S
C1122      C1127   1.485       .  S
C1122      C1123   1.402       .  A
C1123      C1124   1.402       .  A
C1123      H1142   1.085       .  S
C1124      C1125   1.420       .  A
C1124      C1136   1.444       .  S
C1125      C1126   1.411       .  A
C1126      H1141   1.084       .  S
C1127      C1128   1.404       .  A
C1127      C1132   1.413       .  A
C1128      C1129   1.399       .  A
C1128      H1143   1.085       .  S
C1129      C1130   1.409       .  A
C1129      C1133   1.445       .  S
C1130      C1131   1.401       .  A
C1131      C1132   1.400       .  A
C1131      H1144   1.085       .  S
C1132      C1134   1.444       .  S
C1133      N1137   1.157       .  T
C1134      N1138   1.157       .  T
C1135      N1140   1.157       .  T
C1145      C1146   1.411       .  A
C1145      C1150   1.404       .  A
C1145      C1159   1.443       .  S
C1146      C1151   1.485       .  S
C1146      C1147   1.400       .  A
C1147      C1148   1.401       .  A
C1147      H1166   1.085       .  S
C1148      C1149   1.416       .  A
C1148      C1160   1.444       .  S
C1149      C1150   1.404       .  A
C1150      H1165   1.085       .  S
C1151      C1152   1.400       .  A
C1151      C1156   1.409       .  A
C1152      C1153   1.402       .  A
C1152      H1167   1.085       .  S
C1153      C1154   1.419       .  A
C1153      C1157   1.444       .  S
C1154      C1155   1.409       .  A
C1155      C1156   1.402       .  A
C1155      H1168   1.085       .  S
C1156      C1158   1.444       .  S
C1157      N1161   1.157       .  T
C1158      N1162   1.157       .  T
C1159      N1164   1.157       .  T
C1160      N1163   1.157       .  T
C1169      C1170   1.408       .  A
C1169      C1174   1.399       .  A
C1169      C1183   1.444       .  S
C1170      C1175   1.479       .  S
C1170      C1171   1.398       .  A
C1171      C1172   1.397       .  A
C1171      H1190   1.085       .  S
C1172      C1173   1.420       .  A
C1172      C1184   1.444       .  S
C1173      C1174   1.408       .  A
C1174      H1189   1.085       .  S
C1175      C1176   1.402       .  A
C1175      C1180   1.409       .  A
C1176      C1177   1.399       .  A
C1176      H1191   1.085       .  S
C1177      C1178   1.414       .  A
C1177      C1181   1.445       .  S
C1178      C1179   1.405       .  A
C1179      C1180   1.396       .  A
C1179      H1192   1.085       .  S
C1180      C1182   1.445       .  S
C1181      N1185   1.157       .  T
C1182      N1186   1.157       .  T
C1183      N1188   1.157       .  T
C1184      N1187   1.157       .  T
C1193      C1194   1.409       .  A
C1193      C1198   1.398       .  A
C1193      C1207   1.444       .  S
C1194      C1199   1.488       .  S
C1194      C1195   1.406       .  A
C1195      C1196   1.404       .  A
C1195      H1214   1.085       .  S
C1196      C1197   1.414       .  A
C1196      C1208   1.444       .  S
C1197      C1198   1.407       .  A
C1198      H1213   1.085       .  S
C1199      C1200   1.403       .  A
C1199      C1204   1.410       .  A
C1200      C1201   1.401       .  A
C1200      H1215   1.085       .  S
C1201      C1202   1.418       .  A
C1201      C1205   1.445       .  S
C1202      C1203   1.408       .  A
C1203      C1204   1.399       .  A
C1203      H1216   1.085       .  S
C1204      C1206   1.444       .  S
C1206      N1210   1.157       .  T
C1207      N1212   1.157       .  T
C1208      N1211   1.157       .  T
C1217      C1218   1.410       .  A
C1217      C1222   1.402       .  A
C1217      C1231   1.444       .  S
C1218      C1223   1.486       .  S
C1218      C1219   1.401       .  A
C1219      C1220   1.402       .  A
C1219      H1238   1.085       .  S
C1220      C1221   1.418       .  A
C1220      C1232   1.444       .  S
C1221      C1222   1.409       .  A
C1222      H1237   1.085       .  S
C1223      C1224   1.403       .  A
C1223      C1228   1.409       .  A
C1224      C1225   1.403       .  A
C1224      H1239   1.085       .  S
C1225      C1226   1.415       .  A
C1225      C1229   1.444       .  S
C1226      C1227   1.408       .  A
C1227      C1228   1.401       .  A
C1227      H1240   1.085       .  S
C1228      C1230   1.444       .  S
C1229      N1233   1.157       .  T
C1230      N1234   1.157       .  T
C1231      N1236   1.157       .  T
C1232      N1235   1.157       .  T
C1241      C1242   1.410       .  A
C1241      C1246   1.399       .  A
C1241      C1255   1.443       .  S
C1242      C1247   1.481       .  S
C1242      C1243   1.402       .  A
C1243      C1244   1.401       .  A
C1243      H1262   1.085       .  S
C1244      C1245   1.414       .  A
C1244      C1256   1.444       .  S
C1245      C1246   1.403       .  A
C1246      H1261   1.085       .  S
C1247      C1248   1.400       .  A
C1247      C1252   1.407       .  A
C1248      C1249   1.401       .  A
C1248      H1263   1.085       .  S
C1249      C1250   1.420       .  A
C1249      C1253   1.444       .  S
C1250      C1251   1.410       .  A
C1251      C1252   1.399       .  A
C1251      H1264   1.084       .  S
C1252      C1254   1.444       .  S
C1253      N1257   1.157       .  T
C1254      N1258   1.157       .  T
C1255      N1260   1.157       .  T
C1256      N1259   1.157       .  T
O1265     Zr1277   2.433       .  S
O1265      C1267   1.286       .  A
O1266      C1267   1.287       .  A
C1267      C1561   1.477       .  S
O1268     Zr1912   2.441       .  S
O1268      C1270   1.288       .  A
O1269     Zr1620   2.437   1_655  S
O1269      C1270   1.289       .  A
C1270      C1518   1.493       .  S
O1271     Zr1280   2.437       .  S
O1271      C1273   1.287       .  A
O1272      C1273   1.289       .  A
C1273      C1489   1.491       .  S
O1274     Zr1909   2.442       .  S
O1274      C1276   1.288       .  A
O1275     Zr1304   2.430   1_654  S
O1275      C1276   1.287       .  A
C1276      C1465   1.479       .  S
Zr1277     O1906   2.437       .  S
Zr1277     O1278   2.428       .  S
Zr1277     O1911   2.434       .  S
Zr1277     O1283   2.369   1_554  S
Zr1277     O1916   2.369   1_554  S
Zr1277     O1939   2.371       .  S
O1278      H1321   0.990       .  S
O1279     Zr1909   2.435       .  S
O1279      H1952   0.990   1_545  S
O1279      H1956   0.990       .  S
Zr1280     O1900   2.451       .  S
Zr1280     O1281   2.436       .  S
Zr1280     O1914   2.434       .  S
Zr1280     O2232   2.362       .  S
Zr1280     O1599   2.372       .  S
Zr1280     O1942   2.373   1_655  S
O1281      H1954   0.990       .  S
O1281      H1325   0.990       .  S
O1282     Zr1912   2.434       .  S
O1282      H1947   0.990   1_545  S
O1283     Zr1596   2.375       .  S
O1284     Zr1909   2.366   1_556  S
O1284     Zr2228   2.366       .  S
O1284     Zr1304   2.384   1_655  S
O1284      H1627   0.966       .  S
O1285     Zr1297   2.438       .  S
O1285      C1287   1.287       .  A
O1286      C1287   1.287       .  A
C1287      C1393   1.488       .  S
O1288     Zr1932   2.444       .  S
O1288      C1290   1.289       .  A
O1289     Zr1303   2.414       .  S
O1289      C1290   1.284       .  A
C1290      C1542   1.479       .  S
O1291     Zr1300   2.426       .  S
O1291      C1293   1.286       .  A
O1292      C1293   1.287       .  A
C1293      C1422   1.476       .  S
O1294     Zr1929   2.439       .  S
O1294      C1296   1.289       .  A
O1295     Zr1619   2.434       .  S
O1295      C1296   1.288       .  A
C1296      C1441   1.495       .  S
Zr1297     O1926   2.432   1_545  S
Zr1297     O1298   2.436       .  S
Zr1297     O1299   2.433       .  S
Zr1297     O1621   2.365       .  S
Zr1297     O2254   2.367   1_545  S
Zr1297     O1941   2.371   1_545  S
O1298      H1318   0.990       .  S
O1298      H1323   0.990       .  S
O1299      H1319   0.990       .  S
Zr1300     O1920   2.431   1_545  S
Zr1300     O1301   2.435       .  S
Zr1300     O1302   2.433   1_545  S
Zr1300     O1938   2.362   1_545  S
Zr1300     O1305   2.368       .  S
Zr1300     O1940   2.364   1_545  S
O1301      H1949   0.990   1_545  S
O1302      H1316   0.990   1_565  S
O1302      H1326   0.990   1_565  S
Zr1303     O1611   2.425       .  S
Zr1303     O1306   2.380       .  S
Zr1303     O1308   2.386       .  S
Zr1303     O1625   2.387       .  S
Zr1304     O1585   2.415   1_455  S
Zr1304     O1307   2.383   1_456  S
Zr1304     O1626   2.383       .  S
O1305     Zr1613   2.372       .  S
O1305      H1629   0.967       .  S
O1306     Zr2245   2.374       .  S
O1306     Zr1932   2.368       .  S
O1307     Zr1909   2.371       .  S
O1308     Zr1932   2.366       .  S
O1308      H1312   0.966       .  S
O1309     Zr1929   2.372       .  S
O1309     Zr1619   2.387       .  S
O1309      H1314   0.966       .  S
O1310     Zr1912   2.370   1_455  S
O1310     Zr1620   2.388       .  S
H1311      O1600   0.966       .  S
H1313      O1621   0.967       .  S
H1315      O1914   0.990       .  S
H1317      O1933   0.990       .  S
H1320      O1911   0.990       .  S
H1322      O1913   0.990   1_545  S
H1324      O1911   0.990       .  S
O1327     Zr1339   2.440       .  S
O1327      C1329   1.289       .  A
O1328     Zr1365   2.416       .  S
O1328      C1329   1.285       .  A
C1329      C1494   1.480       .  S
O1330     Zr1342   2.438       .  S
O1330      C1332   1.287       .  A
O1331     Zr1366   2.422       .  S
O1331      C1332   1.287       .  A
C1332      C1470   1.491       .  S
O1333     Zr1342   2.426       .  S
O1333      C1335   1.286       .  A
O1334     Zr1365   2.427       .  S
O1334      C1335   1.287       .  A
C1335      C1566   1.490       .  S
O1336     Zr1339   2.448       .  S
O1336      C1338   1.290       .  A
O1337     Zr1366   2.425       .  S
O1337      C1338   1.286       .  A
C1338      C1513   1.488       .  S
Zr1339     O1340   2.434       .  S
Zr1339     O1341   2.435       .  S
Zr1339     O1345   2.371       .  S
Zr1339     O1346   2.368       .  S
Zr1339     O1369   2.370       .  S
Zr1339     O1371   2.372       .  S
O1340      H1383   0.990       .  S
O1341      H1382   0.991       .  S
O1341      H1386   0.990       .  S
Zr1342     O1343   2.435       .  S
Zr1342     O1344   2.435       .  S
Zr1342     O1346   2.367       .  S
Zr1342     O1345   2.370       .  S
Zr1342     O1370   2.375       .  S
Zr1342     O1372   2.368       .  S
O1343      H1384   0.990       .  S
O1343      H1387   0.990       .  S
O1344      H1377   0.990       .  S
O1345     Zr1365   2.379       .  S
O1346     Zr1366   2.377       .  S
O1346      H1373   0.967       .  S
O1347     Zr1359   2.438       .  S
O1347      C1349   1.288       .  A
O1348     Zr1366   2.415       .  S
O1348      C1349   1.284       .  A
C1349      C1417   1.488       .  S
O1350     Zr1362   2.453       .  S
O1350      C1352   1.291       .  A
O1351     Zr1365   2.425       .  S
O1351      C1352   1.286       .  A
C1352      C1446   1.485       .  S
O1353     Zr1362   2.443       .  S
O1353      C1355   1.289       .  A
O1354     Zr1366   2.415       .  S
O1354      C1355   1.285       .  A
C1355      C1398   1.482       .  S
O1356     Zr1359   2.440       .  S
O1356      C1358   1.287       .  A
O1357     Zr1365   2.429       .  S
O1357      C1358   1.289       .  A
C1358      C1537   1.495       .  S
Zr1359     O1360   2.436       .  S
Zr1359     O1361   2.434       .  S
Zr1359     O1367   2.369       .  S
Zr1359     O1368   2.372       .  S
Zr1359     O1371   2.369       .  S
Zr1359     O1369   2.372       .  S
O1360      H1380   0.990       .  S
O1360      H1385   0.990       .  S
O1361      H1381   0.990       .  S
Zr1362     O1363   2.432       .  S
Zr1362     O1364   2.435       .  S
Zr1362     O1368   2.369       .  S
Zr1362     O1367   2.371       .  S
Zr1362     O1372   2.374       .  S
Zr1362     O1370   2.367       .  S
O1363      H1379   0.990       .  S
O1364      H1378   0.991       .  S
O1364      H1388   0.990       .  S
Zr1365     O1368   2.376       .  S
Zr1365     O1370   2.385       .  S
Zr1365     O1371   2.386       .  S
Zr1366     O1367   2.385       .  S
Zr1366     O1369   2.382       .  S
Zr1366     O1372   2.382       .  S
O1367      H1375   0.967       .  S
O1370      H1374   0.966       .  S
O1371      H1376   0.966       .  S
C1389      C1390   1.409       .  A
C1389      C1394   1.400       .  A
C1389      C1403   1.444       .  S
C1390      C1395   1.483       .  S
C1390      C1391   1.401       .  A
C1391      C1392   1.398       .  A
C1391      H1410   1.085       .  S
C1392      C1393   1.417       .  A
C1392      C1404   1.443       .  S
C1393      C1394   1.409       .  A
C1394      H1409   1.085       .  S
C1395      C1396   1.402       .  A
C1395      C1400   1.409       .  A
C1396      C1397   1.401       .  A
C1396      H1411   1.085       .  S
C1397      C1398   1.416       .  A
C1397      C1401   1.445       .  S
C1398      C1399   1.406       .  A
C1399      C1400   1.397       .  A
C1399      H1412   1.085       .  S
C1400      C1402   1.444       .  S
C1401      N1405   1.157       .  T
C1402      N1406   1.157       .  T
C1403      N1408   1.157       .  T
C1404      N1723   1.157   1_554  T
N1407      C1720   1.157       .  T
C1413      C1414   1.405       .  A
C1413      C1418   1.396       .  A
C1413      C1427   1.444       .  S
C1414      C1419   1.479       .  S
C1414      C1415   1.401       .  A
C1415      C1416   1.400       .  A
C1415      H1434   1.085       .  S
C1416      C1417   1.420       .  A
C1416      C1428   1.444       .  S
C1417      C1418   1.409       .  A
C1418      H1433   1.084       .  S
C1419      C1420   1.404       .  A
C1419      C1424   1.407       .  A
C1420      C1421   1.401       .  A
C1420      H1435   1.085       .  S
C1421      C1422   1.412       .  A
C1421      C1425   1.445       .  S
C1422      C1423   1.405       .  A
C1423      C1424   1.396       .  A
C1423      H1436   1.085       .  S
C1424      C1426   1.444       .  S
C1425      N1429   1.157       .  T
C1426      N1430   1.157       .  T
C1427      N1432   1.157       .  T
C1428      N1431   1.157       .  T
C1437      C1438   1.407       .  A
C1437      C1442   1.402       .  A
C1437      C1451   1.444       .  S
C1438      C1443   1.485       .  S
C1438      C1439   1.400       .  A
C1439      C1440   1.402       .  A
C1439      H1458   1.085       .  S
C1440      C1441   1.419       .  A
C1440      C1452   1.444       .  S
C1441      C1442   1.411       .  A
C1442      H1457   1.084       .  S
C1443      C1444   1.400       .  A
C1443      C1448   1.411       .  A
C1444      C1445   1.401       .  A
C1444      H1459   1.085       .  S
C1445      C1446   1.414       .  A
C1445      C1449   1.443       .  S
C1446      C1447   1.406       .  A
C1447      C1448   1.404       .  A
C1447      H1460   1.085       .  S
C1448      C1450   1.444       .  S
C1449      N1453   1.157       .  T
C1450      N1454   1.157       .  T
C1451      N1456   1.157       .  T
C1452      N1771   1.157       .  T
N1455      C1768   1.157       .  T
C1461      C1462   1.411       .  A
C1461      C1466   1.403       .  A
C1461      C1475   1.444       .  S
C1462      C1467   1.481       .  S
C1462      C1463   1.399       .  A
C1463      C1464   1.398       .  A
C1463      H1482   1.085       .  S
C1464      C1465   1.414       .  A
C1464      C1476   1.444       .  S
C1465      C1466   1.404       .  A
C1466      H1481   1.085       .  S
C1467      C1468   1.400       .  A
C1467      C1472   1.408       .  A
C1468      C1469   1.401       .  A
C1468      H1483   1.085       .  S
C1469      C1470   1.420       .  A
C1469      C1473   1.444       .  S
C1470      C1471   1.409       .  A
C1471      C1472   1.399       .  A
C1471      H1484   1.084       .  S
C1472      C1474   1.444       .  S
C1473      N1477   1.157       .  T
C1474      N1478   1.157       .  T
C1475      N1480   1.157       .  T
C1476      N1479   1.157       .  T
C1485      C1486   1.409       .  A
C1485      C1490   1.401       .  A
C1485      C1499   1.444       .  S
C1486      C1491   1.482       .  S
C1486      C1487   1.398       .  A
C1487      C1488   1.400       .  A
C1487      H1506   1.085       .  S
C1488      C1489   1.420       .  A
C1488      C1500   1.444       .  S
C1489      C1490   1.408       .  A
C1490      H1505   1.084       .  S
C1491      C1492   1.403       .  A
C1491      C1496   1.408       .  A
C1492      C1493   1.402       .  A
C1492      H1507   1.085       .  S
C1493      C1494   1.415       .  A
C1493      C1497   1.445       .  S
C1494      C1495   1.405       .  A
C1495      C1496   1.397       .  A
C1495      H1508   1.085       .  S
C1496      C1498   1.444       .  S
C1497      N1501   1.158       .  T
C1498      N1502   1.157       .  T
C1499      N1504   1.157       .  T
C1500      N1503   1.157       .  T
C1509      C1510   1.410       .  A
C1509      C1514   1.399       .  A
C1509      C1523   1.444       .  S
C1510      C1515   1.489       .  S
C1510      C1511   1.404       .  A
C1511      C1512   1.404       .  A
C1511      H1530   1.085       .  S
C1512      C1513   1.417       .  A
C1512      C1524   1.444       .  S
C1513      C1514   1.406       .  A
C1514      H1529   1.085       .  S
C1515      C1516   1.402       .  A
C1515      C1520   1.409       .  A
C1516      C1517   1.400       .  A
C1516      H1531   1.085       .  S
C1517      C1518   1.417       .  A
C1517      C1521   1.443       .  S
C1518      C1519   1.411       .  A
C1519      C1520   1.403       .  A
C1519      H1532   1.084       .  S
C1520      C1522   1.444       .  S
C1521      N1841   1.157       .  T
C1522      N1526   1.157       .  T
C1523      N1528   1.157       .  T
C1524      N1527   1.157       .  T
N1525      C1837   1.158       .  T
C1533      C1534   1.409       .  A
C1533      C1538   1.400       .  A
C1533      C1547   1.444       .  S
C1534      C1539   1.485       .  S
C1534      C1535   1.399       .  A
C1535      C1536   1.402       .  A
C1535      H1554   1.085       .  S
C1536      C1537   1.422       .  A
C1536      C1548   1.444       .  S
C1537      C1538   1.409       .  A
C1538      H1553   1.084       .  S
C1539      C1540   1.405       .  A
C1539      C1544   1.410       .  A
C1540      C1541   1.404       .  A
C1540      H1555   1.085       .  S
C1541      C1542   1.414       .  A
C1541      C1545   1.445       .  S
C1542      C1543   1.403       .  A
C1543      C1544   1.396       .  A
C1543      H1556   1.085       .  S
C1544      C1546   1.444       .  S
C1545      N1549   1.158       .  T
C1546      N1550   1.157       .  T
C1547      N1552   1.157       .  T
C1548      N1551   1.157       .  T
C1557      C1558   1.411       .  A
C1557      C1562   1.399       .  A
C1557      C1571   1.444       .  S
C1558      C1563   1.481       .  S
C1558      C1559   1.401       .  A
C1559      C1560   1.399       .  A
C1559      H1578   1.085       .  S
C1560      C1561   1.414       .  A
C1560      C1572   1.444       .  S
C1561      C1562   1.403       .  A
C1562      H1577   1.085       .  S
C1563      C1564   1.401       .  A
C1563      C1568   1.407       .  A
C1564      C1565   1.401       .  A
C1564      H1579   1.085       .  S
C1565      C1566   1.419       .  A
C1565      C1569   1.444       .  S
C1566      C1567   1.410       .  A
C1567      C1568   1.397       .  A
C1567      H1580   1.084       .  S
C1568      C1570   1.444       .  S
C1569      N1573   1.157       .  T
C1570      N1574   1.157       .  T
C1571      N1576   1.157       .  T
C1572      N1575   1.157       .  T
O1581     Zr1593   2.439       .  S
O1581      C1583   1.288       .  A
O1582      C1583   1.287       .  A
C1583      C1877   1.483       .  S
O1584     Zr2228   2.443       .  S
O1584      C1586   1.289       .  A
O1585      C1586   1.285       .  A
C1586      C1834   1.490       .  S
O1587     Zr1596   2.438       .  S
O1587      C1589   1.287       .  A
O1588      C1589   1.287       .  A
C1589      C1805   1.485       .  S
O1590     Zr2225   2.438       .  S
O1590      C1592   1.287       .  A
O1591     Zr1620   2.449   1_655  S
O1591      C1592   1.291       .  A
C1592      C1781   1.488       .  S
Zr1593     O2222   2.442       .  S
Zr1593     O1594   2.430       .  S
Zr1593     O2227   2.434       .  S
Zr1593     O1599   2.369       .  S
Zr1593     O2232   2.364       .  S
Zr1593     O2255   2.374       .  S
O1594      H1637   0.990       .  S
O1595     Zr2225   2.433       .  S
O1595      H2268   0.990       .  S
O1595      H2272   0.990       .  S
Zr1596     O2216   2.448       .  S
Zr1596     O1597   2.436       .  S
Zr1596     O2230   2.435       .  S
Zr1596     O1916   2.367       .  S
Zr1596     O2258   2.365   1_655  S
O1597      H2270   0.990       .  S
O1597      H1641   0.990       .  S
O1598     Zr2228   2.433       .  S
O1598      H2263   0.990       .  S
O1600     Zr2225   2.367       .  S
O1600     Zr1912   2.363       .  S
O1600     Zr1620   2.379   1_655  S
O1601     Zr1613   2.449       .  S
O1601      C1603   1.289       .  A
O1602      C1603   1.284       .  A
C1603      C1709   1.487       .  S
O1604     Zr2248   2.437       .  S
O1604      C1606   1.287       .  A
O1605     Zr1619   2.427   1_556  S
O1605      C1606   1.287       .  A
C1606      C1858   1.477       .  S
O1607     Zr1616   2.439       .  S
O1607      C1609   1.288       .  A
O1608      C1609   1.285       .  A
C1609      C1738   1.476       .  S
O1610     Zr2245   2.441       .  S
O1610      C1612   1.289       .  A
O1611      C1612   1.286       .  A
C1612      C1757   1.492       .  S
Zr1613     O2242   2.444   1_545  S
Zr1613     O1614   2.439       .  S
Zr1613     O1615   2.435       .  S
Zr1613     O1938   2.372   1_545  S
Zr1613     O2257   2.375   1_545  S
O1614      H1634   0.990       .  S
O1614      H1639   0.990       .  S
O1615      H1635   0.990       .  S
Zr1616     O2236   2.443   1_545  S
Zr1616     O1617   2.432       .  S
Zr1616     O1618   2.436   1_545  S
Zr1616     O2254   2.367   1_546  S
Zr1616     O1621   2.369   1_556  S
Zr1616     O2256   2.369   1_545  S
O1617      H2265   0.990       .  S
O1618      H1632   0.990   1_565  S
O1618      H1642   0.990       .  S
Zr1619     O1622   2.375       .  S
Zr1619     O1624   2.385   1_554  S
Zr1620     O1623   2.388   1_455  S
O1622     Zr1929   2.371       .  S
O1622     Zr2248   2.368   1_554  S
O1623     Zr2225   2.375       .  S
O1624     Zr2248   2.369       .  S
O1624      H1628   0.966       .  S
O1625     Zr2245   2.375       .  S
O1625      H1630   0.966       .  S
O1626     Zr2228   2.371   1_455  S
H1631      O2230   0.990       .  S
H1633      O2249   0.990       .  S
H1636      O2227   0.991       .  S
H1638      O2229   0.990       .  S
H1640      O2227   0.990       .  S
O1643     Zr1655   2.433       .  S
O1643      C1645   1.287       .  A
O1644     Zr1681   2.432       .  S
O1644      C1645   1.288       .  A
C1645      C1810   1.485       .  S
O1646     Zr1658   2.450       .  S
O1646      C1648   1.289       .  A
O1647     Zr1682   2.427       .  S
O1647      C1648   1.288       .  A
C1648      C1786   1.492       .  S
O1649     Zr1658   2.433       .  S
O1649      C1651   1.287       .  A
O1650     Zr1681   2.421       .  S
O1650      C1651   1.286       .  A
C1651      C1882   1.487       .  S
O1652     Zr1655   2.441       .  S
O1652      C1654   1.288       .  A
O1653     Zr1682   2.425       .  S
O1653      C1654   1.287       .  A
C1654      C1829   1.485       .  S
Zr1655     O1656   2.433       .  S
Zr1655     O1657   2.436       .  S
Zr1655     O1661   2.371       .  S
Zr1655     O1662   2.367       .  S
Zr1655     O1685   2.372       .  S
Zr1655     O1687   2.375       .  S
O1656      H1699   0.990       .  S
O1657      H1698   0.991       .  S
O1657      H1702   0.990       .  S
Zr1658     O1659   2.435       .  S
Zr1658     O1660   2.435       .  S
Zr1658     O1662   2.367       .  S
Zr1658     O1661   2.378       .  S
Zr1658     O1686   2.374       .  S
Zr1658     O1688   2.368       .  S
O1659      H1700   0.990       .  S
O1659      H1703   0.990       .  S
O1660      H1693   0.990       .  S
O1661     Zr1681   2.381       .  S
O1662     Zr1682   2.378       .  S
O1662      H1689   0.967       .  S
O1663     Zr1675   2.440       .  S
O1663      C1665   1.288       .  A
O1664     Zr1682   2.418       .  S
O1664      C1665   1.285       .  A
C1665      C1733   1.487       .  S
O1666     Zr1678   2.443       .  S
O1666      C1668   1.288       .  A
O1667     Zr1681   2.424       .  S
O1667      C1668   1.286       .  A
C1668      C1762   1.478       .  S
O1669     Zr1678   2.437       .  S
O1669      C1671   1.288       .  A
O1670     Zr1682   2.418       .  S
O1670      C1671   1.285       .  A
C1671      C1714   1.478       .  S
O1672     Zr1675   2.439       .  S
O1672      C1674   1.287       .  A
O1673     Zr1681   2.428       .  S
O1673      C1674   1.288       .  A
C1674      C1853   1.495       .  S
Zr1675     O1676   2.436       .  S
Zr1675     O1677   2.435       .  S
Zr1675     O1683   2.368       .  S
Zr1675     O1684   2.367       .  S
Zr1675     O1687   2.370       .  S
Zr1675     O1685   2.375       .  S
O1676      H1696   0.990       .  S
O1676      H1701   0.990       .  S
O1677      H1697   0.990       .  S
Zr1678     O1679   2.433       .  S
Zr1678     O1680   2.434       .  S
Zr1678     O1684   2.369       .  S
Zr1678     O1683   2.370       .  S
Zr1678     O1688   2.372       .  S
Zr1678     O1686   2.367       .  S
O1679      H1695   0.990       .  S
O1680      H1694   0.991       .  S
O1680      H1704   0.990       .  S
Zr1681     O1684   2.378       .  S
Zr1681     O1686   2.389       .  S
Zr1681     O1687   2.385       .  S
Zr1682     O1683   2.388       .  S
Zr1682     O1685   2.384       .  S
Zr1682     O1688   2.383       .  S
O1683      H1691   0.967       .  S
O1686      H1690   0.966       .  S
O1687      H1692   0.966       .  S
C1705      C1706   1.407       .  A
C1705      C1710   1.399       .  A
C1705      C1719   1.444       .  S
C1706      C1711   1.479       .  S
C1706      C1707   1.400       .  A
C1707      C1708   1.398       .  A
C1707      H1726   1.085       .  S
C1708      C1709   1.420       .  A
C1708      C1720   1.445       .  S
C1709      C1710   1.409       .  A
C1710      H1725   1.084       .  S
C1711      C1712   1.403       .  A
C1711      C1716   1.407       .  A
C1712      C1713   1.401       .  A
C1712      H1727   1.085       .  S
C1713      C1714   1.414       .  A
C1713      C1717   1.445       .  S
C1714      C1715   1.406       .  A
C1715      C1716   1.396       .  A
C1715      H1728   1.085       .  S
C1716      C1718   1.444       .  S
C1717      N1721   1.157       .  T
C1718      N1722   1.157       .  T
C1719      N1724   1.157       .  T
C1729      C1730   1.407       .  A
C1729      C1734   1.398       .  A
C1729      C1743   1.444       .  S
C1730      C1735   1.480       .  S
C1730      C1731   1.400       .  A
C1731      C1732   1.399       .  A
C1731      H1750   1.085       .  S
C1732      C1733   1.419       .  A
C1732      C1744   1.444       .  S
C1733      C1734   1.409       .  A
C1734      H1749   1.085       .  S
C1735      C1736   1.403       .  A
C1735      C1740   1.408       .  A
C1736      C1737   1.400       .  A
C1736      H1751   1.085       .  S
C1737      C1738   1.413       .  A
C1737      C1741   1.444       .  S
C1738      C1739   1.404       .  A
C1739      C1740   1.397       .  A
C1739      H1752   1.085       .  S
C1740      C1742   1.444       .  S
C1741      N1745   1.157       .  T
C1742      N1746   1.157       .  T
C1743      N1748   1.157       .  T
C1744      N1747   1.157       .  T
C1753      C1754   1.407       .  A
C1753      C1758   1.398       .  A
C1753      C1767   1.444       .  S
C1754      C1759   1.482       .  S
C1754      C1755   1.402       .  A
C1755      C1756   1.403       .  A
C1755      H1774   1.085       .  S
C1756      C1757   1.419       .  A
C1756      C1768   1.445       .  S
C1757      C1758   1.409       .  A
C1758      H1773   1.084       .  S
C1759      C1760   1.402       .  A
C1759      C1764   1.410       .  A
C1760      C1761   1.402       .  A
C1760      H1775   1.085       .  S
C1761      C1762   1.413       .  A
C1761      C1765   1.444       .  S
C1762      C1763   1.404       .  A
C1763      C1764   1.401       .  A
C1763      H1776   1.085       .  S
C1764      C1766   1.444       .  S
C1765      N1769   1.157       .  T
C1766      N1770   1.157       .  T
C1767      N1772   1.157       .  T
C1777      C1778   1.410       .  A
C1777      C1782   1.405       .  A
C1777      C1791   1.443       .  S
C1778      C1783   1.487       .  S
C1778      C1779   1.400       .  A
C1779      C1780   1.402       .  A
C1779      H1798   1.085       .  S
C1780      C1781   1.417       .  A
C1780      C1792   1.444       .  S
C1781      C1782   1.405       .  A
C1782      H1797   1.084       .  S
C1783      C1784   1.401       .  A
C1783      C1788   1.409       .  A
C1784      C1785   1.404       .  A
C1784      H1799   1.085       .  S
C1785      C1786   1.418       .  A
C1785      C1789   1.444       .  S
C1786      C1787   1.408       .  A
C1787      C1788   1.402       .  A
C1787      H1800   1.085       .  S
C1788      C1790   1.443       .  S
C1789      N1793   1.157       .  T
C1790      N1794   1.157       .  T
C1791      N1796   1.157       .  T
C1792      N1795   1.157       .  T
C1801      C1802   1.409       .  A
C1801      C1806   1.400       .  A
C1801      C1815   1.443       .  S
C1802      C1807   1.481       .  S
C1802      C1803   1.399       .  A
C1803      C1804   1.399       .  A
C1803      H1822   1.085       .  S
C1804      C1805   1.417       .  A
C1804      C1816   1.444       .  S
C1805      C1806   1.407       .  A
C1806      H1821   1.085       .  S
C1807      C1808   1.403       .  A
C1807      C1812   1.407       .  A
C1808      C1809   1.402       .  A
C1808      H1823   1.085       .  S
C1809      C1810   1.415       .  A
C1809      C1813   1.444       .  S
C1810      C1811   1.407       .  A
C1811      C1812   1.398       .  A
C1811      H1824   1.085       .  S
C1812      C1814   1.444       .  S
C1813      N1817   1.157       .  T
C1814      N1818   1.157       .  T
C1815      N1820   1.157       .  T
C1816      N1819   1.157       .  T
C1825      C1826   1.410       .  A
C1825      C1830   1.400       .  A
C1825      C1839   1.445       .  S
C1826      C1831   1.487       .  S
C1826      C1827   1.404       .  A
C1827      C1828   1.401       .  A
C1827      H1846   1.085       .  S
C1828      C1829   1.414       .  A
C1828      C1840   1.444       .  S
C1829      C1830   1.407       .  A
C1830      H1845   1.085       .  S
C1831      C1832   1.403       .  A
C1831      C1836   1.409       .  A
C1832      C1833   1.400       .  A
C1832      H1847   1.085       .  S
C1833      C1834   1.419       .  A
C1833      C1837   1.445       .  S
C1834      C1835   1.408       .  A
C1835      C1836   1.398       .  A
C1835      H1848   1.085       .  S
C1836      C1838   1.443       .  S
C1838      N1842   1.157       .  T
C1839      N1844   1.157       .  T
C1840      N1843   1.157       .  T
C1849      C1850   1.408       .  A
C1849      C1854   1.401       .  A
C1849      C1863   1.444       .  S
C1850      C1855   1.482       .  S
C1850      C1851   1.398       .  A
C1851      C1852   1.400       .  A
C1851      H1870   1.085       .  S
C1852      C1853   1.422       .  A
C1852      C1864   1.444       .  S
C1853      C1854   1.410       .  A
C1854      H1869   1.084       .  S
C1855      C1856   1.403       .  A
C1855      C1860   1.408       .  A
C1856      C1857   1.402       .  A
C1856      H1871   1.085       .  S
C1857      C1858   1.412       .  A
C1857      C1861   1.444       .  S
C1858      C1859   1.404       .  A
C1859      C1860   1.398       .  A
C1859      H1872   1.085       .  S
C1860      C1862   1.444       .  S
C1861      N1865   1.157       .  T
C1862      N1866   1.157       .  T
C1863      N1868   1.157       .  T
C1864      N1867   1.157       .  T
C1873      C1874   1.410       .  A
C1873      C1878   1.400       .  A
C1873      C1887   1.444       .  S
C1874      C1879   1.481       .  S
C1874      C1875   1.399       .  A
C1875      C1876   1.399       .  A
C1875      H1894   1.085       .  S
C1876      C1877   1.417       .  A
C1876      C1888   1.443       .  S
C1877      C1878   1.405       .  A
C1878      H1893   1.085       .  S
C1879      C1880   1.401       .  A
C1879      C1884   1.407       .  A
C1880      C1881   1.400       .  A
C1880      H1895   1.085       .  S
C1881      C1882   1.418       .  A
C1881      C1885   1.444       .  S
C1882      C1883   1.409       .  A
C1883      C1884   1.398       .  A
C1883      H1896   1.085       .  S
C1884      C1886   1.444       .  S
C1885      N1889   1.157       .  T
C1886      N1890   1.157       .  T
C1887      N1892   1.157       .  T
C1888      N1891   1.157       .  T
O1897     Zr1909   2.436   1_565  S
O1897      C1899   1.287       .  A
O1898      C1899   1.286       .  A
C1899      C2193   1.476       .  S
O1900      C1902   1.290       .  A
O1901     Zr2252   2.417   1_655  S
O1901      C1902   1.285       .  A
C1902      C2150   1.488       .  S
O1903     Zr1912   2.427   1_565  S
O1903      C1905   1.285       .  A
O1904      C1905   1.289       .  A
C1905      C2121   1.486       .  S
O1906      C1908   1.287       .  A
O1907     Zr1936   2.431   1_654  S
O1907      C1908   1.287       .  A
C1908      C2097   1.478       .  S
Zr1909     O1910   2.430       .  S
Zr1909     O1915   2.370   1_544  S
O1910      H1953   0.990       .  S
Zr1912     O1913   2.436   1_545  S
Zr1912     O2231   2.374   1_545  S
O1913      H1957   0.990   1_565  S
O1915     Zr2228   2.366   1_565  S
O1916     Zr1936   2.382   1_655  S
O1916      H2259   0.966       .  S
O1917     Zr1929   2.437       .  S
O1917      C1919   1.288       .  A
O1918      C1919   1.287       .  A
C1919      C2025   1.486       .  S
O1920      C1922   1.287       .  A
O1921     Zr1935   2.423       .  S
O1921      C1922   1.286       .  A
C1922      C2174   1.484       .  S
O1923     Zr1932   2.438       .  S
O1923      C1925   1.288       .  A
O1924      C1925   1.289       .  A
C1925      C2054   1.488       .  S
O1926      C1928   1.288       .  A
O1927     Zr2251   2.429   1_554  S
O1927      C1928   1.287       .  A
C1928      C2073   1.490       .  S
Zr1929     O1930   2.435       .  S
Zr1929     O1931   2.435       .  S
Zr1929     O2253   2.370       .  S
O1930      H1950   0.990       .  S
O1930      H1955   0.990       .  S
O1931      H1951   0.991       .  S
Zr1932     O1933   2.434       .  S
Zr1932     O1934   2.434       .  S
Zr1932     O1937   2.371       .  S
O1934      H1948   0.990       .  S
O1934      H1958   0.990       .  S
Zr1935     O2243   2.418       .  S
Zr1935     O1938   2.378       .  S
Zr1935     O1940   2.382       .  S
Zr1935     O2257   2.390       .  S
Zr1936     O2217   2.419   1_455  S
Zr1936     O1939   2.382   1_456  S
Zr1936     O2258   2.383       .  S
O1937     Zr2245   2.368       .  S
O1937      H2261   0.967       .  S
O1940      H1944   0.966       .  S
O1941     Zr2251   2.387   1_554  S
O1941      H1946   0.966       .  S
O1942     Zr2252   2.385       .  S
H1943      O2232   0.966       .  S
H1945      O2253   0.967       .  S
O1959     Zr1971   2.444       .  S
O1959      C1961   1.290       .  A
O1960     Zr1997   2.428       .  S
O1960      C1961   1.287       .  A
C1961      C2126   1.488       .  S
O1962     Zr1974   2.446       .  S
O1962      C1964   1.288       .  A
O1963     Zr1998   2.429       .  S
O1963      C1964   1.288       .  A
C1964      C2102   1.497       .  S
O1965     Zr1974   2.430       .  S
O1965      C1967   1.287       .  A
O1966     Zr1997   2.423       .  S
O1966      C1967   1.286       .  A
C1967      C2198   1.487       .  S
O1968     Zr1971   2.444       .  S
O1968      C1970   1.290       .  A
O1969     Zr1998   2.421       .  S
O1969      C1970   1.286       .  A
C1970      C2145   1.483       .  S
Zr1971     O1972   2.434       .  S
Zr1971     O1973   2.435       .  S
Zr1971     O1977   2.369       .  S
Zr1971     O1978   2.369       .  S
Zr1971     O2001   2.371       .  S
Zr1971     O2003   2.371       .  S
O1972      H2015   0.990       .  S
O1973      H2014   0.991       .  S
O1973      H2018   0.990       .  S
Zr1974     O1975   2.436       .  S
Zr1974     O1976   2.434       .  S
Zr1974     O1978   2.367       .  S
Zr1974     O1977   2.373       .  S
Zr1974     O2002   2.373       .  S
Zr1974     O2004   2.367       .  S
O1975      H2016   0.990       .  S
O1975      H2019   0.990       .  S
O1976      H2009   0.990       .  S
O1977     Zr1997   2.381       .  S
O1978     Zr1998   2.382       .  S
O1978      H2005   0.967       .  S
O1979     Zr1991   2.443       .  S
O1979      C1981   1.288       .  A
O1980     Zr1998   2.423       .  S
O1980      C1981   1.286       .  A
C1981      C2049   1.490       .  S
O1982     Zr1994   2.445       .  S
O1982      C1984   1.289       .  A
O1983     Zr1997   2.431       .  S
O1983      C1984   1.287       .  A
C1984      C2078   1.485       .  S
O1985     Zr1994   2.437       .  S
O1985      C1987   1.288       .  A
O1986     Zr1998   2.418       .  S
O1986      C1987   1.285       .  A
C1987      C2030   1.481       .  S
O1988     Zr1991   2.428       .  S
O1988      C1990   1.285       .  A
O1989     Zr1997   2.426       .  S
O1989      C1990   1.287       .  A
C1990      C2169   1.486       .  S
Zr1991     O1992   2.435       .  S
Zr1991     O1993   2.434       .  S
Zr1991     O1999   2.368       .  S
Zr1991     O2000   2.372       .  S
Zr1991     O2003   2.371       .  S
Zr1991     O2001   2.367       .  S
O1992      H2012   0.990       .  S
O1992      H2017   0.990       .  S
O1993      H2013   0.990       .  S
Zr1994     O1995   2.431       .  S
Zr1994     O1996   2.436       .  S
Zr1994     O2000   2.369       .  S
Zr1994     O1999   2.372       .  S
Zr1994     O2004   2.373       .  S
Zr1994     O2002   2.368       .  S
O1995      H2011   0.990       .  S
O1996      H2010   0.991       .  S
O1996      H2020   0.990       .  S
Zr1997     O2000   2.380       .  S
Zr1997     O2002   2.388       .  S
Zr1997     O2003   2.388       .  S
Zr1998     O1999   2.386       .  S
Zr1998     O2001   2.382       .  S
Zr1998     O2004   2.383       .  S
O1999      H2007   0.967       .  S
O2002      H2006   0.966       .  S
O2003      H2008   0.966       .  S
C2021      C2022   1.408       .  A
C2021      C2026   1.401       .  A
C2021      C2035   1.445       .  S
C2022      C2027   1.480       .  S
C2022      C2023   1.399       .  A
C2023      C2024   1.397       .  A
C2023      H2042   1.085       .  S
C2024      C2025   1.418       .  A
C2024      C2036   1.444       .  S
C2025      C2026   1.409       .  A
C2026      H2041   1.085       .  S
C2027      C2028   1.402       .  A
C2027      C2032   1.408       .  A
C2028      C2029   1.400       .  A
C2028      H2043   1.085       .  S
C2029      C2030   1.415       .  A
C2029      C2033   1.445       .  S
C2030      C2031   1.406       .  A
C2031      C2032   1.397       .  A
C2031      H2044   1.085       .  S
C2032      C2034   1.445       .  S
C2033      N2037   1.157       .  T
C2034      N2038   1.157       .  T
C2035      N2040   1.157       .  T
C2036      N2355   1.157       .  T
N2039      C2352   1.157       .  T
C2045      C2046   1.409       .  A
C2045      C2050   1.402       .  A
C2045      C2059   1.444       .  S
C2046      C2051   1.487       .  S
C2046      C2047   1.402       .  A
C2047      C2048   1.401       .  A
C2047      H2066   1.085       .  S
C2048      C2049   1.417       .  A
C2048      C2060   1.443       .  S
C2049      C2050   1.408       .  A
C2050      H2065   1.085       .  S
C2051      C2052   1.405       .  A
C2051      C2056   1.409       .  A
C2052      C2053   1.404       .  A
C2052      H2067   1.085       .  S
C2053      C2054   1.415       .  A
C2053      C2057   1.444       .  S
C2054      C2055   1.408       .  A
C2055      C2056   1.399       .  A
C2055      H2068   1.085       .  S
C2056      C2058   1.444       .  S
C2057      N2061   1.157       .  T
C2058      N2062   1.157       .  T
C2059      N2064   1.157       .  T
C2060      N2063   1.156       .  T
C2069      C2070   1.407       .  A
C2069      C2074   1.398       .  A
C2069      C2083   1.444       .  S
C2070      C2075   1.483       .  S
C2070      C2071   1.402       .  A
C2071      C2072   1.403       .  A
C2071      H2090   1.085       .  S
C2072      C2073   1.418       .  A
C2072      C2084   1.444       .  S
C2073      C2074   1.409       .  A
C2074      H2089   1.085       .  S
C2075      C2076   1.398       .  A
C2075      C2080   1.411       .  A
C2076      C2077   1.399       .  A
C2076      H2091   1.085       .  S
C2077      C2078   1.416       .  A
C2077      C2081   1.443       .  S
C2078      C2079   1.407       .  A
C2079      C2080   1.405       .  A
C2079      H2092   1.085       .  S
C2080      C2082   1.444       .  S
C2081      N2085   1.157       .  T
C2082      N2086   1.157       .  T
C2083      N2088   1.157       .  T
C2084      N2403   1.157       .  T
N2087      C2400   1.158       .  T
C2093      C2094   1.411       .  A
C2093      C2098   1.403       .  A
C2093      C2107   1.443       .  S
C2094      C2099   1.484       .  S
C2094      C2095   1.400       .  A
C2095      C2096   1.399       .  A
C2095      H2114   1.085       .  S
C2096      C2097   1.414       .  A
C2096      C2108   1.444       .  S
C2097      C2098   1.403       .  A
C2098      H2113   1.085       .  S
C2099      C2100   1.398       .  A
C2099      C2104   1.409       .  A
C2100      C2101   1.400       .  A
C2100      H2115   1.085       .  S
C2101      C2102   1.422       .  A
C2101      C2105   1.444       .  S
C2102      C2103   1.411       .  A
C2103      C2104   1.403       .  A
C2103      H2116   1.084       .  S
C2104      C2106   1.444       .  S
C2105      N2109   1.157       .  T
C2106      N2110   1.157       .  T
C2107      N2112   1.157       .  T
C2108      N2111   1.157       .  T
C2117      C2118   1.409       .  A
C2117      C2122   1.399       .  A
C2117      C2131   1.443       .  S
C2118      C2123   1.483       .  S
C2118      C2119   1.400       .  A
C2119      C2120   1.401       .  A
C2119      H2138   1.085       .  S
C2120      C2121   1.419       .  A
C2120      C2132   1.445       .  S
C2121      C2122   1.406       .  A
C2122      H2137   1.085       .  S
C2123      C2124   1.403       .  A
C2123      C2128   1.407       .  A
C2124      C2125   1.404       .  A
C2124      H2139   1.085       .  S
C2125      C2126   1.417       .  A
C2125      C2129   1.445       .  S
C2126      C2127   1.407       .  A
C2127      C2128   1.398       .  A
C2127      H2140   1.085       .  S
C2128      C2130   1.444       .  S
C2129      N2133   1.158       .  T
C2130      N2134   1.157       .  T
C2131      N2136   1.157       .  T
C2132      N2135   1.157       .  T
C2141      C2142   1.408       .  A
C2141      C2146   1.397       .  A
C2141      C2155   1.444       .  S
C2142      C2147   1.484       .  S
C2142      C2143   1.404       .  A
C2143      C2144   1.404       .  A
C2143      H2162   1.085       .  S
C2144      C2145   1.416       .  A
C2144      C2156   1.445       .  S
C2145      C2146   1.405       .  A
C2146      H2161   1.085       .  S
C2147      C2148   1.401       .  A
C2147      C2152   1.409       .  A
C2148      C2149   1.400       .  A
C2148      H2163   1.085       .  S
C2149      C2150   1.419       .  A
C2149      C2153   1.444       .  S
C2150      C2151   1.407       .  A
C2151      C2152   1.400       .  A
C2151      H2164   1.085       .  S
C2152      C2154   1.443       .  S
C2153      N2473   1.157       .  T
C2154      N2158   1.157       .  T
C2155      N2160   1.157       .  T
C2156      N2159   1.158       .  T
N2157      C2469   1.157       .  T
C2165      C2166   1.411       .  A
C2165      C2170   1.399       .  A
C2165      C2179   1.444       .  S
C2166      C2171   1.484       .  S
C2166      C2167   1.400       .  A
C2167      C2168   1.399       .  A
C2167      H2186   1.085       .  S
C2168      C2169   1.419       .  A
C2168      C2180   1.445       .  S
C2169      C2170   1.406       .  A
C2170      H2185   1.085       .  S
C2171      C2172   1.404       .  A
C2171      C2176   1.408       .  A
C2172      C2173   1.402       .  A
C2172      H2187   1.085       .  S
C2173      C2174   1.415       .  A
C2173      C2177   1.444       .  S
C2174      C2175   1.407       .  A
C2175      C2176   1.396       .  A
C2175      H2188   1.085       .  S
C2176      C2178   1.444       .  S
C2177      N2181   1.158       .  T
C2178      N2182   1.157       .  T
C2179      N2184   1.157       .  T
C2180      N2183   1.157       .  T
C2189      C2190   1.410       .  A
C2189      C2194   1.400       .  A
C2189      C2203   1.444       .  S
C2190      C2195   1.477       .  S
C2190      C2191   1.399       .  A
C2191      C2192   1.397       .  A
C2191      H2210   1.085       .  S
C2192      C2193   1.414       .  A
C2192      C2204   1.444       .  S
C2193      C2194   1.403       .  A
C2194      H2209   1.085       .  S
C2195      C2196   1.400       .  A
C2195      C2200   1.405       .  A
C2196      C2197   1.400       .  A
C2196      H2211   1.085       .  S
C2197      C2198   1.418       .  A
C2197      C2201   1.444       .  S
C2198      C2199   1.409       .  A
C2199      C2200   1.398       .  A
C2199      H2212   1.085       .  S
C2200      C2202   1.444       .  S
C2201      N2205   1.157       .  T
C2202      N2206   1.157       .  T
C2203      N2208   1.157       .  T
C2204      N2207   1.157       .  T
O2213     Zr2225   2.440   1_565  S
O2213      C2215   1.288       .  A
O2214      C2215   1.286       .  A
C2215      C2509   1.480       .  S
O2216      C2218   1.289       .  A
O2217      C2218   1.285       .  A
C2218      C2466   1.488       .  S
O2219     Zr2228   2.435   1_565  S
O2219      C2221   1.286       .  A
O2220      C2221   1.289       .  A
C2221      C2437   1.493       .  S
O2222      C2224   1.287       .  A
O2223     Zr2252   2.424   1_655  S
O2223      C2224   1.286       .  A
C2224      C2413   1.473       .  S
Zr2225     O2226   2.428       .  S
Zr2225     O2231   2.370   1_545  S
O2226      H2269   0.990       .  S
Zr2228     O2229   2.436       .  S
O2229      H2273   0.990       .  S
O2232     Zr2252   2.381   1_655  S
O2233     Zr2245   2.448       .  S
O2233      C2235   1.290       .  A
O2234      C2235   1.284       .  A
C2235      C2341   1.489       .  S
O2236      C2238   1.288       .  A
O2237     Zr2251   2.427       .  S
O2237      C2238   1.287       .  A
C2238      C2490   1.485       .  S
O2239     Zr2248   2.432       .  S
O2239      C2241   1.287       .  A
O2240      C2241   1.285       .  A
C2241      C2370   1.471       .  S
O2242      C2244   1.290       .  A
O2243      C2244   1.285       .  A
C2244      C2389   1.495       .  S
Zr2245     O2246   2.438       .  S
Zr2245     O2247   2.435       .  S
O2246      H2266   0.990       .  S
O2246      H2271   0.990       .  S
O2247      H2267   0.990       .  S
Zr2248     O2249   2.435       .  S
Zr2248     O2250   2.437       .  S
Zr2248     O2253   2.367   1_556  S
O2250      H2264   0.990       .  S
O2250      H2274   0.990       .  S
Zr2251     O2254   2.373   1_556  S
Zr2251     O2256   2.388       .  S
Zr2252     O2255   2.387   1_455  S
O2256      H2260   0.966       .  S
O2257      H2262   0.966       .  S
O2275     Zr2287   2.443       .  S
O2275      C2277   1.290       .  A
O2276     Zr2313   2.426       .  S
O2276      C2277   1.287       .  A
C2277      C2442   1.486       .  S
O2278     Zr2290   2.439       .  S
O2278      C2280   1.286       .  A
O2279     Zr2314   2.442       .  S
O2279      C2280   1.291       .  A
C2280      C2418   1.495       .  S
O2281     Zr2290   2.422       .  S
O2281      C2283   1.286       .  A
O2282     Zr2313   2.434       .  S
O2282      C2283   1.289       .  A
C2283      C2514   1.493       .  S
O2284     Zr2287   2.444       .  S
O2284      C2286   1.290       .  A
O2285     Zr2314   2.420       .  S
O2285      C2286   1.286       .  A
C2286      C2461   1.488       .  S
Zr2287     O2288   2.433       .  S
Zr2287     O2289   2.435       .  S
Zr2287     O2293   2.368       .  S
Zr2287     O2294   2.368       .  S
Zr2287     O2317   2.370       .  S
Zr2287     O2319   2.370       .  S
O2288      H2331   0.990       .  S
O2289      H2330   0.991       .  S
O2289      H2334   0.990       .  S
Zr2290     O2291   2.438       .  S
Zr2290     O2292   2.435       .  S
Zr2290     O2294   2.362       .  S
Zr2290     O2293   2.373       .  S
Zr2290     O2318   2.373       .  S
Zr2290     O2320   2.368       .  S
O2291      H2332   0.990       .  S
O2291      H2335   0.990       .  S
O2292      H2325   0.990       .  S
O2293     Zr2313   2.378       .  S
O2294     Zr2314   2.375       .  S
O2294      H2321   0.967       .  S
O2295     Zr2307   2.427       .  S
O2295      C2297   1.286       .  A
O2296     Zr2314   2.419       .  S
O2296      C2297   1.285       .  A
C2297      C2365   1.486       .  S
O2298     Zr2310   2.437       .  S
O2298      C2300   1.287       .  A
O2299     Zr2313   2.426       .  S
O2299      C2300   1.287       .  A
C2300      C2394   1.478       .  S
O2301     Zr2310   2.433       .  S
O2301      C2303   1.287       .  A
O2302     Zr2314   2.420       .  S
O2302      C2303   1.286       .  A
C2303      C2346   1.481       .  S
O2304     Zr2307   2.437       .  S
O2304      C2306   1.287       .  A
O2305     Zr2313   2.432       .  S
O2305      C2306   1.289       .  A
C2306      C2485   1.489       .  S
Zr2307     O2308   2.437       .  S
Zr2307     O2309   2.436       .  S
Zr2307     O2315   2.373       .  S
Zr2307     O2316   2.370       .  S
Zr2307     O2319   2.367       .  S
Zr2307     O2317   2.373       .  S
O2308      H2328   0.990       .  S
O2308      H2333   0.990       .  S
O2309      H2329   0.990       .  S
Zr2310     O2311   2.433       .  S
Zr2310     O2312   2.436       .  S
Zr2310     O2316   2.369       .  S
Zr2310     O2315   2.365       .  S
Zr2310     O2320   2.375       .  S
Zr2310     O2318   2.368       .  S
O2311      H2327   0.990       .  S
O2312      H2326   0.991       .  S
O2312      H2336   0.990       .  S
Zr2313     O2316   2.379       .  S
Zr2313     O2318   2.384       .  S
Zr2313     O2319   2.387       .  S
Zr2314     O2315   2.389       .  S
Zr2314     O2317   2.389       .  S
Zr2314     O2320   2.379       .  S
O2315      H2323   0.967       .  S
O2318      H2322   0.966       .  S
O2319      H2324   0.965       .  S
C2337      C2338   1.409       .  A
C2337      C2342   1.399       .  A
C2337      C2351   1.445       .  S
C2338      C2343   1.482       .  S
C2338      C2339   1.400       .  A
C2339      C2340   1.398       .  A
C2339      H2358   1.085       .  S
C2340      C2341   1.420       .  A
C2340      C2352   1.444       .  S
C2341      C2342   1.409       .  A
C2342      H2357   1.084       .  S
C2343      C2344   1.403       .  A
C2343      C2348   1.409       .  A
C2344      C2345   1.400       .  A
C2344      H2359   1.085       .  S
C2345      C2346   1.414       .  A
C2345      C2349   1.444       .  S
C2346      C2347   1.407       .  A
C2347      C2348   1.396       .  A
C2347      H2360   1.085       .  S
C2348      C2350   1.445       .  S
C2349      N2353   1.157       .  T
C2350      N2354   1.157       .  T
C2351      N2356   1.157       .  T
C2361      C2362   1.406       .  A
C2361      C2366   1.396       .  A
C2361      C2375   1.445       .  S
C2362      C2367   1.474       .  S
C2362      C2363   1.400       .  A
C2363      C2364   1.398       .  A
C2363      H2382   1.085       .  S
C2364      C2365   1.419       .  A
C2364      C2376   1.444       .  S
C2365      C2366   1.409       .  A
C2366      H2381   1.084       .  S
C2367      C2368   1.403       .  A
C2367      C2372   1.407       .  A
C2368      C2369   1.399       .  A
C2368      H2383   1.085       .  S
C2369      C2370   1.412       .  A
C2369      C2373   1.444       .  S
C2370      C2371   1.404       .  A
C2371      C2372   1.394       .  A
C2371      H2384   1.085       .  S
C2372      C2374   1.444       .  S
C2373      N2377   1.157       .  T
C2374      N2378   1.157       .  T
C2375      N2380   1.157       .  T
C2376      N2379   1.157       .  T
C2385      C2386   1.408       .  A
C2385      C2390   1.397       .  A
C2385      C2399   1.444       .  S
C2386      C2391   1.485       .  S
C2386      C2387   1.402       .  A
C2387      C2388   1.402       .  A
C2387      H2406   1.085       .  S
C2388      C2389   1.422       .  A
C2388      C2400   1.445       .  S
C2389      C2390   1.410       .  A
C2390      H2405   1.084       .  S
C2391      C2392   1.402       .  A
C2391      C2396   1.412       .  A
C2392      C2393   1.400       .  A
C2392      H2407   1.085       .  S
C2393      C2394   1.414       .  A
C2393      C2397   1.444       .  S
C2394      C2395   1.403       .  A
C2395      C2396   1.400       .  A
C2395      H2408   1.085       .  S
C2396      C2398   1.444       .  S
C2397      N2401   1.157       .  T
C2398      N2402   1.157       .  T
C2399      N2404   1.157       .  T
C2409      C2410   1.411       .  A
C2409      C2414   1.402       .  A
C2409      C2423   1.443       .  S
C2410      C2415   1.484       .  S
C2410      C2411   1.402       .  A
C2411      C2412   1.401       .  A
C2411      H2430   1.085       .  S
C2412      C2413   1.412       .  A
C2412      C2424   1.445       .  S
C2413      C2414   1.401       .  A
C2414      H2429   1.085       .  S
C2415      C2416   1.399       .  A
C2415      C2420   1.408       .  A
C2416      C2417   1.403       .  A
C2416      H2431   1.085       .  S
C2417      C2418   1.422       .  A
C2417      C2421   1.444       .  S
C2418      C2419   1.408       .  A
C2419      C2420   1.401       .  A
C2419      H2432   1.085       .  S
C2420      C2422   1.443       .  S
C2421      N2425   1.157       .  T
C2422      N2426   1.157       .  T
C2423      N2428   1.157       .  T
C2424      N2427   1.157       .  T
C2433      C2434   1.410       .  A
C2433      C2438   1.403       .  A
C2433      C2447   1.444       .  S
C2434      C2439   1.485       .  S
C2434      C2435   1.398       .  A
C2435      C2436   1.399       .  A
C2435      H2454   1.085       .  S
C2436      C2437   1.421       .  A
C2436      C2448   1.444       .  S
C2437      C2438   1.409       .  A
C2438      H2453   1.085       .  S
C2439      C2440   1.403       .  A
C2439      C2444   1.409       .  A
C2440      C2441   1.402       .  A
C2440      H2455   1.085       .  S
C2441      C2442   1.416       .  A
C2441      C2445   1.444       .  S
C2442      C2443   1.407       .  A
C2443      C2444   1.399       .  A
C2443      H2456   1.085       .  S
C2444      C2446   1.444       .  S
C2445      N2449   1.158       .  T
C2446      N2450   1.157       .  T
C2447      N2452   1.157       .  T
C2448      N2451   1.157       .  T
C2457      C2458   1.409       .  A
C2457      C2462   1.398       .  A
C2457      C2471   1.444       .  S
C2458      C2463   1.486       .  S
C2458      C2459   1.403       .  A
C2459      C2460   1.401       .  A
C2459      H2478   1.085       .  S
C2460      C2461   1.417       .  A
C2460      C2472   1.444       .  S
C2461      C2462   1.408       .  A
C2462      H2477   1.085       .  S
C2463      C2464   1.401       .  A
C2463      C2468   1.410       .  A
C2464      C2465   1.398       .  A
C2464      H2479   1.085       .  S
C2465      C2466   1.417       .  A
C2465      C2469   1.444       .  S
C2466      C2467   1.408       .  A
C2467      C2468   1.401       .  A
C2467      H2480   1.085       .  S
C2468      C2470   1.444       .  S
C2470      N2474   1.157       .  T
C2471      N2476   1.157       .  T
C2472      N2475   1.157       .  T
C2481      C2482   1.408       .  A
C2481      C2486   1.400       .  A
C2481      C2495   1.444       .  S
C2482      C2487   1.483       .  S
C2482      C2483   1.400       .  A
C2483      C2484   1.403       .  A
C2483      H2502   1.085       .  S
C2484      C2485   1.419       .  A
C2484      C2496   1.444       .  S
C2485      C2486   1.407       .  A
C2486      H2501   1.085       .  S
C2487      C2488   1.402       .  A
C2487      C2492   1.408       .  A
C2488      C2489   1.403       .  A
C2488      H2503   1.085       .  S
C2489      C2490   1.414       .  A
C2489      C2493   1.444       .  S
C2490      C2491   1.407       .  A
C2491      C2492   1.401       .  A
C2491      H2504   1.085       .  S
C2492      C2494   1.444       .  S
C2493      N2497   1.157       .  T
C2494      N2498   1.157       .  T
C2495      N2500   1.157       .  T
C2496      N2499   1.157       .  T
C2505      C2506   1.411       .  A
C2505      C2510   1.401       .  A
C2505      C2519   1.444       .  S
C2506      C2511   1.483       .  S
C2506      C2507   1.400       .  A
C2507      C2508   1.399       .  A
C2507      H2526   1.085       .  S
C2508      C2509   1.414       .  A
C2508      C2520   1.444       .  S
C2509      C2510   1.404       .  A
C2510      H2525   1.085       .  S
C2511      C2512   1.402       .  A
C2511      C2516   1.407       .  A
C2512      C2513   1.401       .  A
C2512      H2527   1.085       .  S
C2513      C2514   1.418       .  A
C2513      C2517   1.444       .  S
C2514      C2515   1.412       .  A
C2515      C2516   1.399       .  A
C2515      H2528   1.084       .  S
C2516      C2518   1.444       .  S
C2517      N2521   1.157       .  T
C2518      N2522   1.157       .  T
C2519      N2524   1.157       .  T
C2520      N2523   1.157       .  T
