geometry optimzed in LAMMPS
_audit_creation_date              2020-11-30 
_audit_creation_method            'lammps2cif' 
_symmetry_space_group_name_H-M    'P1' 
_symmetry_Int_Tables_number       1 
_symmetry_cell_setting            triclinic 
loop_ 
_symmetry_equiv_pos_as_xyz 
  x,y,z 
_cell_length_a                    35.83995033275931 
_cell_length_b                    43.41492393677529 
_cell_length_c                    49.231027315691165 
_cell_angle_alpha                 90.07030382887146 
_cell_angle_beta                  89.79637449537618 
_cell_angle_gamma                 89.82725984653979 
loop_ 
_atom_site_label 
_atom_site_type_symbol 
_atom_site_fract_x 
_atom_site_fract_y 
_atom_site_fract_z 
_atom_site_charge 
O1          O  0.99398258  0.04690756  0.15890316    -0.57310
C2          C  0.99647251  0.02789677  0.24314179     0.75310
O3          O  0.00301421  0.12742201  0.21514064    -0.58470
C4          C  0.99275786  0.07133979  0.14479504     0.75290
C5          C  0.90501317  0.08125894  0.20851140     0.77680
Cd6        Cd  0.98459329  0.07505842  0.20261770     1.37460
O7          O  0.99378062  0.02097084  0.21820814    -0.57310
O8          O  0.91976384  0.06577428  0.18964313    -0.56120
C9          C  0.03792823  0.12305321  0.21289167     0.77640
O10         O  0.92708896  0.09611985  0.22364989    -0.58490
O11         O  0.99731431  0.05622730  0.24883010    -0.56940
O12         O  0.98950958  0.09652409  0.15749876    -0.56930
O13         O  0.04803166  0.09610270  0.20610192    -0.56110
O14         O  0.00274589  0.51110453  0.28924105    -0.57310
C15         C  0.99339115  0.46446745  0.36536951     0.75310
O16         O  0.91947375  0.43848339  0.29852661    -0.58470
C17         C  0.99534301  0.50456154  0.26471248     0.75290
C18         C  0.03464123  0.41234291  0.29548310     0.77680
Cd19       Cd  0.98246735  0.46080448  0.30774457     1.37470
O20         O  0.99643761  0.48860171  0.35102463    -0.57310
O21         O  0.04506718  0.43986098  0.29938377    -0.56120
C22         C  0.90181049  0.46089919  0.30915340     0.77640
O23         O  0.99980601  0.40728783  0.29658120    -0.58490
O24         O  0.98740249  0.43951881  0.35293186    -0.56940
O25         O  0.98412131  0.47749481  0.25996852    -0.56930
O26         O  0.92171570  0.48229423  0.31850679    -0.56110
O27         O  0.66339048  0.48523470  0.22241687    -0.57310
C28         C  0.75421357  0.04893089  0.23601400     0.75310
O29         O  0.65343890  0.04540287  0.29087178    -0.58470
C30         C  0.64167645  0.47139196  0.23876319     0.75290
C31         C  0.74727863  0.48281521  0.28902034     0.77680
Cd32       Cd  0.69268096  0.01646570  0.25864827     1.37460
O33         O  0.73850563  0.02798928  0.22210147    -0.57310
O34         O  0.73740112  0.47546538  0.26531955    -0.56120
C35         C  0.64107981  0.06410135  0.27320063     0.77640
O36         O  0.72781094  0.00351993  0.30068224    -0.58490
O37         O  0.73738209  0.05781190  0.25722377    -0.56940
O38         O  0.64361279  0.47862765  0.26361728    -0.56930
O39         O  0.65292669  0.06063506  0.24907606    -0.56110
O40         O  0.50172382  0.26273963  0.29174941    -0.57310
C41         C  0.49314601  0.21478194  0.36618200     0.75310
O42         O  0.42300898  0.18792972  0.29466979    -0.58470
C43         C  0.49822382  0.25603001  0.26680777     0.75290
C44         C  0.53680681  0.16292599  0.29594381     0.77680
Cd45       Cd  0.48411842  0.21087494  0.30833702     1.37470
O46         O  0.49485024  0.23899475  0.35186367    -0.57310
O47         O  0.54694723  0.19056561  0.29957143    -0.56120
C48         C  0.40359211  0.20894410  0.30583160     0.77640
O49         O  0.50216168  0.15741499  0.29803701    -0.58490
O50         O  0.48939620  0.18957237  0.35367289    -0.56940
O51         O  0.49092509  0.22829136  0.26117242    -0.56930
O52         O  0.42166761  0.22971803  0.31782924    -0.56110
O53         O  0.50228071  0.27270170  0.22057369    -0.57310
C54         C  0.49232290  0.32177966  0.14590382     0.75310
O55         O  0.42409122  0.34808739  0.21628406    -0.58470
C56         C  0.49890999  0.27959904  0.24550409     0.75290
C57         C  0.53933474  0.37250834  0.21427684     0.77680
Cd58       Cd  0.48570658  0.32471691  0.20385868     1.37470
O59         O  0.49742880  0.29766992  0.15997171    -0.57310
O60         O  0.54896296  0.34591681  0.20618017    -0.56120
C61         C  0.40533596  0.32582314  0.20678659     0.77640
O62         O  0.50458392  0.37665120  0.21801554    -0.58490
O63         O  0.48579460  0.34649571  0.15866374    -0.56940
O64         O  0.49292436  0.30760151  0.25109941    -0.56930
O65         O  0.42408471  0.30438681  0.19598761    -0.56110
O66         O  0.23172948  0.25400659  0.29485580    -0.57310
C67         C  0.14255125  0.31691111  0.27035938     0.75310
O68         O  0.22932026  0.28117106  0.21472096    -0.58470
C69         C  0.24960586  0.23331919  0.28183520     0.75290
C70         C  0.13985073  0.22218884  0.23821632     0.77680
Cd71       Cd  0.19213390  0.26780713  0.25527156     1.37460
O72         O  0.15475321  0.29823678  0.28813060    -0.57310
O73         O  0.14262622  0.23065491  0.26274009    -0.56120
C74         C  0.25129678  0.29858139  0.22788187     0.77640
O75         O  0.16138156  0.23495987  0.22109592    -0.58490
O76         O  0.15351103  0.31265370  0.24615995    -0.56940
O77         O  0.23678271  0.22636232  0.25880739    -0.56930
O78         O  0.24239588  0.30451645  0.25223259    -0.56110
O79         O  0.98773630  0.51374660  0.46868552    -0.57310
C80         C  0.99634485  0.46452280  0.39503466     0.75310
O81         O  0.06099022  0.43807694  0.47250235    -0.58470
C82         C  0.98773455  0.50693752  0.49373281     0.75290
C83         C  0.94867547  0.41378190  0.46316681     0.77680
Cd84       Cd  0.00309432  0.46078711  0.45303744     1.37460
O85         O  0.99357813  0.48879816  0.40928358    -0.57310
O86         O  0.93943634  0.44162938  0.45935311    -0.56120
C87         C  0.08281340  0.45586209  0.45969610     0.77640
O88         O  0.98327279  0.40760154  0.46213086    -0.58490
O89         O  0.00111416  0.43948255  0.40762149    -0.56940
O90         O  0.99208435  0.47886122  0.49964555    -0.56930
O91         O  0.06765306  0.47470574  0.44366791    -0.56110
O92         O  0.98244785  0.02363624  0.03993728    -0.57310
C93         C  0.99482195  0.07134612  0.11509806     0.75310
O94         O  0.05899281  0.09871181  0.04172228    -0.58470
C95         C  0.98650582  0.03054000  0.01506442     0.75290
C96         C  0.94733561  0.12415671  0.04754296     0.77680
Cd97       Cd  0.99965264  0.07524732  0.05701928     1.37460
O98         O  0.98734233  0.04789966  0.10072937    -0.57310
O99         O  0.93655645  0.09686667  0.05226789    -0.56120
C100        C  0.07857490  0.07606394  0.04950437     0.77640
O101        O  0.98227529  0.12842019  0.04657509    -0.58490
O102        O  0.00354781  0.09569779  0.10262286    -0.56940
O103        O  0.99275310  0.05850080  0.00963075    -0.56930
O104        O  0.06201087  0.05451960  0.06171007    -0.56110
O105        O  0.32628404  0.04972016  0.47096294    -0.57310
C106        C  0.23544582  0.48187249  0.48631711     0.75310
O107        O  0.32946484  0.49195594  0.04138676    -0.58470
C108        C  0.34479643  0.06533491  0.48811389     0.75290
C109        C  0.23298742  0.05324914  0.02639748     0.77680
Cd110      Cd  0.29412639  0.01935665  0.00627085     1.37470
O111        O  0.25473085  0.99784086  0.46969561    -0.57310
O112        O  0.24424784  0.05506822  0.00207949    -0.56120
C113        C  0.34433125  0.47339952  0.02449533     0.77640
O114        O  0.25421650  0.03981748  0.04340379    -0.58490
O115        O  0.24766139  0.48020047  0.01032792    -0.56940
O116        O  0.33959786  0.05942140  0.01303620    -0.56930
O117        O  0.33610704  0.47646665  0.49961640    -0.56110
O118        O  0.48319156  0.26470893  0.47011469    -0.57310
C119        C  0.49516618  0.21513513  0.39588045     0.75310
O120        O  0.55932473  0.19035111  0.47163681    -0.58470
C121        C  0.48329335  0.25757422  0.49507937     0.75290
C122        C  0.45010762  0.16231659  0.46410198     0.77680
Cd123      Cd  0.50036914  0.21238622  0.45396417     1.37470
O124        O  0.48898289  0.23913610  0.40995105    -0.57310
O125        O  0.43833214  0.18816638  0.45563699    -0.56120
C126        C  0.58015298  0.21020072  0.46049631     0.77640
O127        O  0.48500865  0.15999826  0.46758459    -0.58490
O128        O  0.50256945  0.19065989  0.40866276    -0.56940
O129        O  0.48755663  0.22943294  0.50068594    -0.56930
O130        O  0.56403665  0.23005526  0.44591982    -0.56110
O131        O  0.47988261  0.27393842  0.04149932    -0.57310
C132        C  0.49396499  0.32189655  0.11620244     0.75310
O133        O  0.55790747  0.34583721  0.03942646    -0.58470
C134        C  0.48293617  0.28095094  0.01658191     0.75290
C135        C  0.44862820  0.37581075  0.04888426     0.77680
Cd136      Cd  0.49901932  0.32544325  0.05818857     1.37470
O137        O  0.48892680  0.29789936  0.10195201    -0.57310
O138        O  0.43690117  0.34916845  0.05510662    -0.56120
C139        C  0.57820549  0.32568127  0.05069215     0.77640
O140        O  0.48369424  0.37868814  0.04680882    -0.58490
O141        O  0.50006816  0.34674408  0.10362258    -0.56940
O142        O  0.48948216  0.30882364  0.01115513    -0.56930
O143        O  0.56230333  0.30696432  0.06647146    -0.56110
O144        O  0.75357787  0.28654211  0.04274522    -0.57310
C145        C  0.84289322  0.22157841  0.02306245     0.75310
O146        O  0.75539020  0.25216892  0.46617472    -0.58470
C147        C  0.73232737  0.30115396  0.02651142     0.75290
C148        C  0.84435388  0.31610958  0.48695703     0.77680
Cd149      Cd  0.79428509  0.26914270  0.00477480     1.37470
O150        O  0.83080503  0.24167213  0.03975333    -0.57310
O151        O  0.83268305  0.31430148  0.01122248    -0.56120
C152        C  0.73508529  0.23510988  0.48114619     0.77640
O153        O  0.83260162  0.29591654  0.47037410    -0.58490
O154        O  0.83300619  0.22423639  0.49851689    -0.56930
O155        O  0.74366512  0.30453139  0.00233276    -0.56930
O156        O  0.74640117  0.23083385  0.00518966    -0.56110
C157        C  0.64495796  0.32883207  0.06384153    -0.19800
C158        C  0.61790867  0.32223848  0.04413079    -0.06370
C159        C  0.62868437  0.30937856  0.01902708     0.14500
C160        C  0.66648322  0.30405812  0.01388216    -0.19860
C161        C  0.69381671  0.31035860  0.03351238    -0.06380
C162        C  0.68303209  0.32293326  0.05882591     0.14490
C163        C  0.71141544  0.33056204  0.08023273    -0.23210
H164        H  0.63618847  0.33820691  0.08326457     0.15770
H165        H  0.67460702  0.29363629  0.99470389     0.15800
C166        C  0.60018461  0.29981318  0.99816088    -0.23160
H167        H  0.69822885  0.34142335  0.09832871     0.06020
H168        H  0.73225979  0.34689325  0.07184259     0.09240
H169        H  0.72577276  0.30926584  0.08701586     0.09240
H170        H  0.58378900  0.32016815  0.49154685     0.09220
H171        H  0.58101196  0.28244516  0.00705895     0.09220
H172        H  0.61348099  0.28938630  0.47989935     0.06000
C173        C  0.64327142  0.22341647  0.44354785    -0.19800
C174        C  0.62107101  0.21115981  0.46445346    -0.06370
C175        C  0.63793452  0.20305361  0.48932286     0.14500
C176        C  0.67606845  0.20871711  0.49297322    -0.19860
C177        C  0.69789736  0.22314581  0.47281733    -0.06380
C178        C  0.68136374  0.22961524  0.44734035     0.14490
C179        C  0.70296076  0.24381430  0.42424083    -0.23210
H180        H  0.63034408  0.22926473  0.42434444     0.15770
H181        H  0.68830455  0.20342300  0.01252466     0.15800
C182        C  0.61563101  0.19040351  0.01281425    -0.23160
H183        H  0.68590437  0.24555019  0.40550138     0.06020
H184        H  0.72777871  0.22940625  0.41945051     0.09240
H185        H  0.71173551  0.26749892  0.42970445     0.09240
H186        H  0.60333728  0.16788156  0.00715021     0.09220
H187        H  0.59310358  0.20685889  0.01846127     0.09220
H188        H  0.63317444  0.18665796  0.03108040     0.06000
C189        C  0.38879135  0.13672587  0.45726074    -0.19800
C190        C  0.42422444  0.13631676  0.46953010    -0.06370
C191        C  0.43354083  0.11159236  0.48710540     0.14500
C192        C  0.40706786  0.08858973  0.49223997    -0.19860
C193        C  0.37186257  0.08913666  0.48000385    -0.06380
C194        C  0.36257973  0.11335575  0.46217524     0.14490
C195        C  0.32460084  0.11532291  0.44925028    -0.23210
H196        H  0.38144945  0.15549928  0.44380441     0.15770
H197        H  0.41383117  0.06996714  0.00604016     0.15800
C198        C  0.47072044  0.10945504  0.50125968    -0.23160
H199        H  0.32158156  0.13636643  0.43663471     0.06020
H200        H  0.30269342  0.11592646  0.46526209     0.09240
H201        H  0.32010649  0.09505511  0.43591992     0.09240
H202        H  0.47535429  0.13040933  0.01373344     0.09220
H203        H  0.49344940  0.10684999  0.48604777     0.09220
H204        H  0.47223101  0.08924219  0.01502478     0.06000
C205        C  0.40768514  0.45615221  0.03670133    -0.19800
C206        C  0.37004273  0.44897753  0.03307795    -0.06370
C207        C  0.35798894  0.41828907  0.03546327     0.14500
C208        C  0.38418060  0.39512318  0.04110431    -0.19860
C209        C  0.42237882  0.40186565  0.04401519    -0.06380
C210        C  0.43416775  0.43304093  0.04205013     0.14490
C211        C  0.47432848  0.44248095  0.04552099    -0.23210
H212        H  0.41648811  0.47989343  0.03464822     0.15770
H213        H  0.37473982  0.37152670  0.04269215     0.15800
C214        C  0.31747029  0.41004215  0.03188746    -0.23160
H215        H  0.47780751  0.46784936  0.04427139     0.06020
H216        H  0.49175464  0.43211832  0.02919835     0.09240
H217        H  0.48457230  0.43501463  0.06573662     0.09240
H218        H  0.30815510  0.41644265  0.01115357     0.09220
H219        H  0.30024648  0.42266232  0.04706905     0.09220
H220        H  0.31262438  0.38499255  0.03465389     0.06000
C221        C  0.90101525  0.20335804  0.04485075    -0.19800
C222        C  0.86779279  0.19626574  0.03136842    -0.06370
C223        C  0.85991488  0.16535862  0.02453857     0.14500
C224        C  0.88606078  0.14232711  0.03069166    -0.19860
C225        C  0.92029172  0.14949980  0.04291948    -0.06380
C226        C  0.92764027  0.18042684  0.05046559     0.14490
C227        C  0.96306728  0.18948059  0.06479013    -0.23210
H228        H  0.90670693  0.22710865  0.05014109     0.15770
H229        H  0.88012890  0.11866758  0.02524673     0.15800
C230        C  0.82368541  0.15648960  0.01117549    -0.23160
H231        H  0.96297409  0.21422757  0.07052243     0.06020
H232        H  0.98746524  0.18558034  0.05126725     0.09240
H233        H  0.96623612  0.17576448  0.08367110     0.09240
H234        H  0.82173014  0.16711867  0.49074849     0.09220
H235        H  0.79982912  0.16436673  0.02389034     0.09220
H236        H  0.82134945  0.13116333  0.00855379     0.06000
C237        C  0.16696971  0.05069999  0.01506344    -0.19800
C238        C  0.19429812  0.06210309  0.03275831    -0.06370
C239        C  0.18353907  0.07954053  0.05569057     0.14500
C240        C  0.14531637  0.08517320  0.06034568    -0.19860
C241        C  0.11821924  0.07313358  0.04278859    -0.06380
C242        C  0.12907877  0.05553774  0.02004259     0.14490
C243        C  0.10065679  0.04120793  0.00134929    -0.23210
H244        H  0.17529757  0.03684246  0.99770579     0.15770
H245        H  0.13650724  0.09827182  0.07800134     0.15800
C246        C  0.21213190  0.09242998  0.07485074    -0.23160
H247        H  0.11409151  0.02816548  0.98449947     0.06020
H248        H  0.08285598  0.05947238  0.99234295     0.09240
H249        H  0.08279811  0.02493803  0.01290211     0.09240
H250        H  0.23167201  0.10754869  0.06352544     0.09220
H251        H  0.22803031  0.07337636  0.08442256     0.09220
H252        H  0.19891611  0.10625424  0.09128851     0.06000
C253        C  0.92621992  0.36027763  0.45684351    -0.19800
C254        C  0.92063221  0.38952868  0.46840171    -0.06370
C255        C  0.88914075  0.39467141  0.48523408     0.14500
C256        C  0.86459292  0.37027520  0.49046365    -0.19860
C257        C  0.87013235  0.34104537  0.47890830    -0.06380
C258        C  0.90115107  0.33603717  0.46162663     0.14490
C259        C  0.90881333  0.30499105  0.44905250    -0.23210
H260        H  0.95035361  0.35639547  0.44392610     0.15770
H261        H  0.84082616  0.37402976  0.00377794     0.15800
C262        C  0.88193546  0.42537644  0.99863858    -0.23160
H263        H  0.93510078  0.30493434  0.43702707     0.06020
H264        H  0.88575113  0.29868698  0.43514976     0.09240
H265        H  0.91143854  0.28731336  0.46521754     0.09240
H266        H  0.87659547  0.44319573  0.48298506     0.09220
H267        H  0.90639924  0.43208143  0.01107310     0.09220
H268        H  0.85714667  0.42467617  0.01223753     0.06000
C269        C  0.13603330  0.45109321  0.49108421    -0.19800
C270        C  0.12354971  0.45637028  0.46459881    -0.06370
C271        C  0.14962285  0.46511935  0.44438821     0.14500
C272        C  0.18683019  0.47074127  0.45174512    -0.19860
C273        C  0.19866462  0.46838336  0.47884230    -0.06380
C274        C  0.17294794  0.45731446  0.49867221     0.14490
C275        C  0.18294772  0.95346549  0.02824138    -0.23210
H276        H  0.11605351  0.44410874  0.00646679     0.15770
H277        H  0.20631023  0.47859604  0.43637819     0.15800
C278        C  0.13854597  0.46869215  0.41503703    -0.23160
H279        H  0.15949333  0.94378690  0.04029100     0.06020
H280        H  0.18981845  0.97616566  0.03731736     0.09240
H281        H  0.20690421  0.43736319  0.03022198     0.09240
H282        H  0.11910972  0.48841263  0.41265612     0.09220
H283        H  0.12504931  0.44723009  0.40778044     0.09220
H284        H  0.16309320  0.47319443  0.40180244     0.06000
C285        C  0.34684494  0.29876739  0.19486730    -0.19800
C286        C  0.36391993  0.32346656  0.20854762    -0.06370
C287        C  0.34145364  0.34304075  0.22487590     0.14500
C288        C  0.30357158  0.33584095  0.22870981    -0.19860
C289        C  0.28747531  0.30955355  0.21690099    -0.06380
C290        C  0.30922061  0.29133440  0.19900072     0.14490
C291        C  0.29403384  0.26272617  0.18564224    -0.23210
H292        H  0.36352123  0.28403276  0.18180078     0.15770
H293        H  0.28684213  0.34995504  0.24227559     0.15800
C294        C  0.35714138  0.37073235  0.23929864    -0.23160
H295        H  0.31525264  0.25112653  0.17265892     0.06020
H296        H  0.27004733  0.26887372  0.17249963     0.09240
H297        H  0.28507232  0.24596055  0.20136291     0.09240
H298        H  0.36927680  0.38691658  0.22425206     0.09220
H299        H  0.37885534  0.36338236  0.25397110     0.09220
H300        H  0.33531961  0.38342354  0.25088066     0.06000
C301        C  0.30209769  0.23386769  0.31460917    -0.19800
C302        C  0.28583837  0.22049270  0.29154709    -0.06370
C303        C  0.30719541  0.19890929  0.27618821     0.14500
C304        C  0.34490771  0.19406187  0.28265731    -0.19860
C305        C  0.36220693  0.21031303  0.30374224    -0.06380
C306        C  0.33989804  0.22923698  0.32088011     0.14490
C307        C  0.35546877  0.24512208  0.34563325    -0.23210
H308        H  0.28581223  0.24968040  0.32692831     0.15770
H309        H  0.36155834  0.17883439  0.27001353     0.15800
C310        C  0.29136012  0.18149005  0.25234126    -0.23160
H311        H  0.33323138  0.25659995  0.35776850     0.06020
H312        H  0.37556532  0.26323448  0.33952118     0.09240
H313        H  0.36937223  0.22799284  0.35896186     0.09240
H314        H  0.28537023  0.19747892  0.23533731     0.09220
H315        H  0.26554990  0.16928935  0.25861153     0.09220
H316        H  0.31123624  0.16391630  0.24446470     0.06000
C317        C  0.61763093  0.11712953  0.26586133    -0.19800
C318        C  0.61452747  0.08918835  0.28003213    -0.06370
C319        C  0.58559260  0.08564727  0.29941081     0.14500
C320        C  0.56046984  0.11005328  0.30390192    -0.19860
C321        C  0.56402599  0.13811964  0.29005148    -0.06380
C322        C  0.59305803  0.14174978  0.27081947     0.14490
C323        C  0.59754675  0.17108497  0.25479855    -0.23210
H324        H  0.63968427  0.11981516  0.25091501     0.15770
H325        H  0.53810669  0.10735870  0.31859460     0.15800
C326        C  0.58022804  0.05599721  0.31480390    -0.23160
H327        H  0.62054169  0.16929364  0.23967930     0.06020
H328        H  0.60419504  0.19045809  0.26865210     0.09240
H329        H  0.57137902  0.17626115  0.24366313     0.09240
H330        H  0.60472132  0.05155286  0.32797245     0.09220
H331        H  0.57666946  0.03661311  0.30031894     0.09220
H332        H  0.55514695  0.05687777  0.32810852     0.06000
C333        C  0.55283719  0.42731889  0.22518463    -0.19800
C334        C  0.56677437  0.39774460  0.21902287    -0.06370
C335        C  0.60612016  0.39335392  0.21774871     0.14500
C336        C  0.62989206  0.41836046  0.22297437    -0.19860
C337        C  0.61562149  0.44736975  0.22980636    -0.06380
C338        C  0.57674754  0.45204068  0.23076055     0.14490
C339        C  0.56051927  0.48318937  0.23756508    -0.23210
H340        H  0.52295729  0.43117376  0.22596648     0.15770
H341        H  0.65990858  0.41503295  0.22265860     0.15800
C342        C  0.62366944  0.36250234  0.21162169    -0.23160
H343        H  0.52953959  0.48306239  0.23691371     0.06020
H344        H  0.57066597  0.50049992  0.22271049     0.09240
H345        H  0.56910088  0.49019857  0.25830664     0.09240
H346        H  0.61552334  0.35473504  0.19099966     0.09220
H347        H  0.61473419  0.34535905  0.22702373     0.09220
H348        H  0.65463661  0.36352528  0.21210164     0.06000
C349        C  0.08753807  0.33610042  0.29615052    -0.19800
C350        C  0.11607340  0.34201801  0.27727503    -0.06370
C351        C  0.11815809  0.37143368  0.26496326     0.14500
C352        C  0.09140770  0.39393418  0.27161232    -0.19860
C353        C  0.06206326  0.38762044  0.28966874    -0.06380
C354        C  0.06026805  0.35841588  0.30229781     0.14490
C355        C  0.03035953  0.35093891  0.32282846    -0.23210
H356        H  0.08608453  0.31365546  0.30567802     0.15770
H357        H  0.09299845  0.41647304  0.26226179     0.15800
C358        C  0.14896363  0.37961200  0.24532786    -0.23160
H359        H  0.03424406  0.32761218  0.33162457     0.06020
H360        H  0.00253258  0.35154564  0.31303331     0.09240
H361        H  0.03109770  0.36790791  0.33971664     0.09240
H362        H  0.14667861  0.36548040  0.22662254     0.09220
H363        H  0.17652579  0.37559673  0.25496227     0.09220
H364        H  0.14755646  0.40417090  0.23912637     0.06000
C365        C  0.80188867  0.99000623  0.31884647    -0.19800
C366        C  0.78280057  0.47098707  0.30056701    -0.06370
C367        C  0.80152833  0.44486626  0.28976424     0.14500
C368        C  0.83991411  0.44108338  0.29450150    -0.19860
C369        C  0.86023562  0.46274626  0.30958221    -0.06380
C370        C  0.84035219  0.48655337  0.32331219     0.14490
C371        C  0.85915748  0.00930054  0.34195043    -0.23210
H372        H  0.78744841  0.00949297  0.32783133     0.15770
H373        H  0.85446061  0.42197588  0.28500526     0.15800
C374        C  0.78163248  0.42103164  0.27289698    -0.23160
H375        H  0.83870297  0.02485685  0.35204040     0.06020
H376        H  0.87857300  0.02410883  0.33022990     0.09240
H377        H  0.87446877  0.99681010  0.35814189     0.09240
H378        H  0.77381504  0.43061150  0.25284554     0.09220
H379        H  0.75631387  0.41300530  0.28382810     0.09220
H380        H  0.79960099  0.40060939  0.26896199     0.06000
C381        C  0.12691136  0.17162187  0.21716872    -0.19800
C382        C  0.11328272  0.19797691  0.23031260    -0.06370
C383        C  0.07505577  0.20005531  0.23695326     0.14500
C384        C  0.05140190  0.17540885  0.23065780    -0.19860
C385        C  0.06497410  0.14836438  0.21824273    -0.06380
C386        C  0.10346883  0.14658662  0.21129724     0.14490
C387        C  0.12038508  0.11866949  0.19774223    -0.23210
H388        H  0.15639364  0.17027283  0.21221598     0.15770
H389        H  0.02206932  0.17722132  0.23588232     0.15800
C390        C  0.05894672  0.22852525  0.25014799    -0.23160
H391        H  0.15054361  0.12188306  0.19330806     0.06020
H392        H  0.10612979  0.11416332  0.17816008     0.09240
H393        H  0.11784812  0.09834585  0.21126780     0.09240
H394        H  0.06478152  0.24895226  0.23728256     0.09220
H395        H  0.07144145  0.23195624  0.27050791     0.09220
H396        H  0.02823697  0.22679807  0.25285149     0.06000
C397        C  0.85475150  0.07549194  0.24184357    -0.19800
C398        C  0.86473728  0.07894046  0.21455071    -0.06370
C399        C  0.83731103  0.07500338  0.19422423     0.14500
C400        C  0.80091391  0.06637473  0.20183582    -0.19860
C401        C  0.79161528  0.06098827  0.22914373    -0.06380
C402        C  0.81925887  0.06533581  0.24942550     0.14490
C403        C  0.81435210  0.05687137  0.27899213    -0.23210
H404        H  0.87595820  0.07786813  0.25739553     0.15770
H405        H  0.77985788  0.06306809  0.18635007     0.15800
C406        C  0.84610796  0.08012535  0.16461973    -0.23160
H407        H  0.81567055  0.07796849  0.29169814     0.06020
H408        H  0.83733962  0.04117112  0.28515286     0.09240
H409        H  0.78831554  0.04448835  0.28365044     0.09240
H410        H  0.86652269  0.06273805  0.15729918     0.09220
H411        H  0.85771871  0.10358415  0.16175598     0.09220
H412        H  0.82078096  0.07809200  0.15180476     0.06000
O413        O  0.99398256  0.04690757  0.65890315    -0.57310
C414        C  0.99647248  0.02789679  0.74314178     0.75310
O415        O  0.00301422  0.12742203  0.71514063    -0.58470
C416        C  0.99275790  0.07133980  0.64479503     0.75290
C417        C  0.90501318  0.08125899  0.70851133     0.77680
Cd418      Cd  0.98459329  0.07505844  0.70261768     1.37460
O419        O  0.99378064  0.02097086  0.71820812    -0.57310
O420        O  0.91976385  0.06577433  0.68964307    -0.56120
C421        C  0.03792823  0.12305323  0.71289167     0.77640
O422        O  0.92708895  0.09611987  0.72364984    -0.58490
O423        O  0.99731425  0.05622733  0.74883010    -0.56940
O424        O  0.98950969  0.09652411  0.65749875    -0.56930
O425        O  0.04803167  0.09610271  0.70610193    -0.56110
O426        O  0.00274586  0.51110457  0.78924104    -0.57310
C427        C  0.99339113  0.46446746  0.86536949     0.75310
O428        O  0.91947373  0.43848343  0.79852657    -0.58470
C429        C  0.99534301  0.50456157  0.76471247     0.75290
C430        C  0.03464122  0.41234293  0.79548309     0.77680
Cd431      Cd  0.98246734  0.46080450  0.80774456     1.37470
O432        O  0.99643761  0.48860173  0.85102462    -0.57310
O433        O  0.04506717  0.43986100  0.79938376    -0.56120
C434        C  0.90181048  0.46089923  0.80915336     0.77640
O435        O  0.99980600  0.40728785  0.79658119    -0.58490
O436        O  0.98740245  0.43951882  0.85293184    -0.56940
O437        O  0.98412134  0.47749483  0.75996850    -0.56930
O438        O  0.92171568  0.48229426  0.81850677    -0.56110
O439        O  0.66339047  0.48523473  0.72241675    -0.57310
C440        C  0.75421355  0.04893092  0.73601387     0.75310
O441        O  0.65343891  0.04540290  0.79087167    -0.58470
C442        C  0.64167645  0.47139199  0.73876308     0.75290
C443        C  0.74727863  0.48281527  0.78902023     0.77680
Cd444      Cd  0.69268095  0.01646573  0.75864815     1.37460
O445        O  0.73850563  0.02798930  0.72210135    -0.57310
O446        O  0.73740113  0.47546543  0.76531944    -0.56120
C447        C  0.64107981  0.06410138  0.77320053     0.77640
O448        O  0.72781092  0.00351998  0.80068213    -0.58490
O449        O  0.73738207  0.05781194  0.75722363    -0.56940
O450        O  0.64361280  0.47862770  0.76361717    -0.56930
O451        O  0.65292667  0.06063509  0.74907595    -0.56110
O452        O  0.50172383  0.26273964  0.79174940    -0.57310
C453        C  0.49314602  0.21478194  0.86618199     0.75310
O454        O  0.42300897  0.18792971  0.79466980    -0.58470
C455        C  0.49822382  0.25603001  0.76680776     0.75290
C456        C  0.53680681  0.16292601  0.79594378     0.77680
Cd457      Cd  0.48411842  0.21087494  0.80833702     1.37470
O458        O  0.49485023  0.23899476  0.85186366    -0.57310
O459        O  0.54694723  0.19056562  0.79957140    -0.56120
C460        C  0.40359211  0.20894410  0.80583160     0.77640
O461        O  0.50216169  0.15741500  0.79803699    -0.58490
O462        O  0.48939623  0.18957238  0.85367288    -0.56940
O463        O  0.49092507  0.22829137  0.76117241    -0.56930
O464        O  0.42166760  0.22971804  0.81782923    -0.56110
O465        O  0.50228070  0.27270170  0.72057368    -0.57310
C466        C  0.49232288  0.32177966  0.64590381     0.75310
O467        O  0.42409121  0.34808739  0.71628406    -0.58470
C468        C  0.49890999  0.27959905  0.74550408     0.75290
C469        C  0.53933474  0.37250835  0.71427680     0.77680
Cd470      Cd  0.48570657  0.32471691  0.70385867     1.37470
O471        O  0.49742880  0.29766992  0.65997170    -0.57310
O472        O  0.54896296  0.34591682  0.70618014    -0.56120
C473        C  0.40533596  0.32582315  0.70678659     0.77640
O474        O  0.50458392  0.37665121  0.71801551    -0.58490
O475        O  0.48579457  0.34649570  0.65866373    -0.56940
O476        O  0.49292436  0.30760152  0.75109940    -0.56930
O477        O  0.42408470  0.30438682  0.69598761    -0.56110
O478        O  0.23172948  0.25400660  0.79485581    -0.57310
C479        C  0.14255124  0.31691113  0.77035939     0.75310
O480        O  0.22932026  0.28117107  0.71472098    -0.58470
C481        C  0.24960585  0.23331920  0.78183521     0.75290
C482        C  0.13985073  0.22218886  0.73821634     0.77680
Cd483      Cd  0.19213389  0.26780714  0.75527158     1.37460
O484        O  0.15475321  0.29823680  0.78813061    -0.57310
O485        O  0.14262621  0.23065492  0.76274011    -0.56120
C486        C  0.25129678  0.29858139  0.72788189     0.77640
O487        O  0.16138155  0.23495988  0.72109594    -0.58490
O488        O  0.15351103  0.31265371  0.74615997    -0.56940
O489        O  0.23678270  0.22636233  0.75880740    -0.56930
O490        O  0.24239588  0.30451645  0.75223260    -0.56110
O491        O  0.98773628  0.51374660  0.96868553    -0.57310
C492        C  0.99634484  0.46452281  0.89503464     0.75310
O493        O  0.06099020  0.43807695  0.97250234    -0.58470
C494        C  0.98773454  0.50693751  0.99373282     0.75290
C495        C  0.94867545  0.41378190  0.96316679     0.77680
Cd496      Cd  0.00309431  0.46078711  0.95303743     1.37460
O497        O  0.99357812  0.48879817  0.90928357    -0.57310
O498        O  0.93943633  0.44162938  0.95935310    -0.56120
C499        C  0.08281339  0.45586210  0.95969609     0.77640
O500        O  0.98327278  0.40760154  0.96213084    -0.58490
O501        O  0.00111414  0.43948256  0.90762148    -0.56940
O502        O  0.99208434  0.47886121  0.99964555    -0.56930
O503        O  0.06765305  0.47470574  0.94366789    -0.56110
O504        O  0.98244783  0.02363627  0.53993727    -0.57310
C505        C  0.99482199  0.07134614  0.61509806     0.75310
O506        O  0.05899287  0.09871187  0.54172242    -0.58470
C507        C  0.98650582  0.03054002  0.51506441     0.75290
C508        C  0.94733561  0.12415672  0.54754294     0.77680
Cd509      Cd  0.99965265  0.07524734  0.55701927     1.37460
O510        O  0.98734230  0.04789969  0.60072937    -0.57310
O511        O  0.93655646  0.09686668  0.55226790    -0.56120
C512        C  0.07857490  0.07606391  0.54950435     0.77640
O513        O  0.98227529  0.12842020  0.54657504    -0.58490
O514        O  0.00354792  0.09569779  0.60262285    -0.56940
O515        O  0.99275312  0.05850083  0.50963074    -0.56930
O516        O  0.06201081  0.05451948  0.56170990    -0.56110
O517        O  0.32628404  0.04972017  0.97096293    -0.57310
C518        C  0.23544580  0.48187251  0.98631710     0.75310
O519        O  0.32946484  0.49195593  0.54138677    -0.58470
C520        C  0.34479643  0.06533491  0.98811388     0.75290
C521        C  0.23298742  0.05324913  0.52639748     0.77680
Cd522      Cd  0.29412640  0.01935664  0.50627085     1.37470
O523        O  0.25473082  0.99784089  0.96969561    -0.57310
O524        O  0.24424784  0.05506821  0.50207949    -0.56120
C525        C  0.34433125  0.47339952  0.52449534     0.77640
O526        O  0.25421651  0.03981749  0.54340379    -0.58490
O527        O  0.24766139  0.48020047  0.51032793    -0.56940
O528        O  0.33959787  0.05942138  0.51303621    -0.56930
O529        O  0.33610703  0.47646665  0.99961639    -0.56110
O530        O  0.48319159  0.26470896  0.97011468    -0.57310
C531        C  0.49516619  0.21513514  0.89588044     0.75310
O532        O  0.55932473  0.19035113  0.97163681    -0.58470
C533        C  0.48329335  0.25757424  0.99507936     0.75290
C534        C  0.45010761  0.16231660  0.96410197     0.77680
Cd535      Cd  0.50036913  0.21238623  0.95396416     1.37470
O536        O  0.48898287  0.23913611  0.90995104    -0.57310
O537        O  0.43833214  0.18816639  0.95563697    -0.56120
C538        C  0.58015298  0.21020073  0.96049631     0.77640
O539        O  0.48500864  0.15999828  0.96758459    -0.58490
O540        O  0.50256947  0.19065990  0.90866276    -0.56940
O541        O  0.48755659  0.22943296  0.00068592    -0.56930
O542        O  0.56403665  0.23005526  0.94591982    -0.56110
O543        O  0.47988265  0.27393840  0.54149934    -0.57310
C544        C  0.49396497  0.32189655  0.61620243     0.75310
O545        O  0.55790743  0.34583716  0.53942636    -0.58470
C546        C  0.48293617  0.28095092  0.51658192     0.75290
C547        C  0.44862820  0.37581074  0.54888427     0.77680
Cd548      Cd  0.49901932  0.32544324  0.55818857     1.37470
O549        O  0.48892681  0.29789935  0.60195201    -0.57310
O550        O  0.43690117  0.34916844  0.55510661    -0.56120
C551        C  0.57820548  0.32568129  0.55069214     0.77640
O552        O  0.48369424  0.37868814  0.54680884    -0.58490
O553        O  0.50006812  0.34674408  0.60362257    -0.56940
O554        O  0.48948211  0.30882362  0.51115513    -0.56930
O555        O  0.56230335  0.30696442  0.56647153    -0.56110
O556        O  0.75357786  0.28654212  0.54274522    -0.57310
C557        C  0.84289321  0.22157842  0.52306244     0.75310
O558        O  0.75539020  0.25216892  0.96617472    -0.58470
C559        C  0.73232736  0.30115397  0.52651141     0.75290
C560        C  0.84435388  0.31610957  0.98695702     0.77680
Cd561      Cd  0.79428509  0.26914271  0.50477480     1.37470
O562        O  0.83080502  0.24167213  0.53975333    -0.57310
O563        O  0.83268305  0.31430148  0.51122249    -0.56120
C564        C  0.73508529  0.23510987  0.98114619     0.77640
O565        O  0.83260162  0.29591653  0.97037410    -0.58490
O566        O  0.83300619  0.22423638  0.99851689    -0.56930
O567        O  0.74366512  0.30453140  0.50233275    -0.56930
O568        O  0.74640117  0.23083386  0.50518966    -0.56110
C569        C  0.64495795  0.32883204  0.56384153    -0.19800
C570        C  0.61790867  0.32223851  0.54413078    -0.06370
C571        C  0.62868437  0.30937862  0.51902705     0.14500
C572        C  0.66648323  0.30405818  0.51388213    -0.19860
C573        C  0.69381671  0.31035862  0.53351237    -0.06380
C574        C  0.68303208  0.32293323  0.55882592     0.14490
C575        C  0.71141542  0.33056198  0.58023275    -0.23210
H576        H  0.63618846  0.33820685  0.58326459     0.15770
H577        H  0.67460703  0.29363639  0.49470385     0.15800
C578        C  0.60018463  0.29981328  0.49816083    -0.23160
H579        H  0.69822883  0.34142326  0.59832874     0.06020
H580        H  0.73225978  0.34689319  0.57184264     0.09240
H581        H  0.72577273  0.30926576  0.58701586     0.09240
H582        H  0.58378897  0.32016803  0.99154688     0.09220
H583        H  0.58101196  0.28244526  0.50705887     0.09220
H584        H  0.61348097  0.28938618  0.97989940     0.06000
C585        C  0.64327142  0.22341648  0.94354785    -0.19800
C586        C  0.62107101  0.21115981  0.96445347    -0.06370
C587        C  0.63793451  0.20305362  0.98932286     0.14500
C588        C  0.67606845  0.20871712  0.99297322    -0.19860
C589        C  0.69789736  0.22314581  0.97281733    -0.06380
C590        C  0.68136375  0.22961524  0.94734036     0.14490
C591        C  0.70296076  0.24381430  0.92424084    -0.23210
H592        H  0.63034409  0.22926474  0.92434444     0.15770
H593        H  0.68830456  0.20342299  0.51252466     0.15800
C594        C  0.61563102  0.19040349  0.51281425    -0.23160
H595        H  0.68590438  0.24555018  0.90550138     0.06020
H596        H  0.72777872  0.22940624  0.91945052     0.09240
H597        H  0.71173551  0.26749891  0.92970445     0.09240
H598        H  0.60333729  0.16788154  0.50715021     0.09220
H599        H  0.59310359  0.20685887  0.51846127     0.09220
H600        H  0.63317445  0.18665794  0.53108040     0.06000
C601        C  0.38879136  0.13672587  0.95726072    -0.19800
C602        C  0.42422443  0.13631677  0.96953009    -0.06370
C603        C  0.43354082  0.11159238  0.98710541     0.14500
C604        C  0.40706785  0.08858975  0.99223998    -0.19860
C605        C  0.37186257  0.08913667  0.98000385    -0.06380
C606        C  0.36257973  0.11335575  0.96217523     0.14490
C607        C  0.32460085  0.11532290  0.94925025    -0.23210
H608        H  0.38144946  0.15549927  0.94380438     0.15770
H609        H  0.41383119  0.06996711  0.50604015     0.15800
C610        C  0.47072042  0.10945507  0.00125970    -0.23160
H611        H  0.32158158  0.13636641  0.93663467     0.06020
H612        H  0.30269342  0.11592645  0.96526205     0.09240
H613        H  0.32010652  0.09505509  0.93591989     0.09240
H614        H  0.47535432  0.13040929  0.51373343     0.09220
H615        H  0.49344939  0.10685002  0.98604780     0.09220
H616        H  0.47223103  0.08924215  0.51502475     0.06000
C617        C  0.40768514  0.45615221  0.53670135    -0.19800
C618        C  0.37004273  0.44897753  0.53307797    -0.06370
C619        C  0.35798894  0.41828906  0.53546329     0.14500
C620        C  0.38418060  0.39512318  0.54110432    -0.19860
C621        C  0.42237882  0.40186565  0.54401520    -0.06380
C622        C  0.43416775  0.43304093  0.54205014     0.14490
C623        C  0.47432848  0.44248095  0.54552100    -0.23210
H624        H  0.41648811  0.47989342  0.53464824     0.15770
H625        H  0.37473982  0.37152669  0.54269216     0.15800
C626        C  0.31747028  0.41004215  0.53188747    -0.23160
H627        H  0.47780751  0.46784935  0.54427139     0.06020
H628        H  0.49175464  0.43211832  0.52919836     0.09240
H629        H  0.48457230  0.43501463  0.56573663     0.09240
H630        H  0.30815510  0.41644265  0.51115358     0.09220
H631        H  0.30024648  0.42266231  0.54706906     0.09220
H632        H  0.31262438  0.38499255  0.53465390     0.06000
C633        C  0.90101525  0.20335804  0.54485074    -0.19800
C634        C  0.86779278  0.19626575  0.53136841    -0.06370
C635        C  0.85991487  0.16535862  0.52453857     0.14500
C636        C  0.88606078  0.14232711  0.53069164    -0.19860
C637        C  0.92029172  0.14949981  0.54291947    -0.06380
C638        C  0.92764027  0.18042684  0.55046558     0.14490
C639        C  0.96306728  0.18948060  0.56479011    -0.23210
H640        H  0.90670693  0.22710866  0.55014108     0.15770
H641        H  0.88012890  0.11866758  0.52524672     0.15800
C642        C  0.82368540  0.15648960  0.51117549    -0.23160
H643        H  0.96297409  0.21422757  0.57052242     0.06020
H644        H  0.98746524  0.18558035  0.55126723     0.09240
H645        H  0.96623612  0.17576448  0.58367109     0.09240
H646        H  0.82173015  0.16711867  0.99074850     0.09220
H647        H  0.79982912  0.16436673  0.52389034     0.09220
H648        H  0.82134944  0.13116333  0.50855378     0.06000
C649        C  0.16696972  0.05069983  0.51506350    -0.19800
C650        C  0.19429812  0.06210306  0.53275831    -0.06370
C651        C  0.18353907  0.07954063  0.55569048     0.14500
C652        C  0.14531637  0.08517330  0.56034559    -0.19860
C653        C  0.11821924  0.07313354  0.54278857    -0.06380
C654        C  0.12907877  0.05553758  0.52004265     0.14490
C655        C  0.10065680  0.04120766  0.50134940    -0.23210
H656        H  0.17529758  0.03684222  0.49770590     0.15770
H657        H  0.13650724  0.09827201  0.57800119     0.15800
C658        C  0.21213191  0.09243021  0.57485058    -0.23160
H659        H  0.11409153  0.02816515  0.48449962     0.06020
H660        H  0.08285596  0.05947205  0.49234301     0.09240
H661        H  0.08279815  0.02493779  0.51290228     0.09240
H662        H  0.23167198  0.10754887  0.56352521     0.09220
H663        H  0.22803036  0.07337665  0.58442248     0.09220
H664        H  0.19891612  0.10625455  0.59128830     0.06000
C665        C  0.92621991  0.36027762  0.95684349    -0.19800
C666        C  0.92063220  0.38952868  0.96840169    -0.06370
C667        C  0.88914073  0.39467141  0.98523406     0.14500
C668        C  0.86459291  0.37027520  0.99046364    -0.19860
C669        C  0.87013234  0.34104536  0.97890828    -0.06380
C670        C  0.90115107  0.33603717  0.96162662     0.14490
C671        C  0.90881334  0.30499104  0.94905250    -0.23210
H672        H  0.95035360  0.35639546  0.94392609     0.15770
H673        H  0.84082617  0.37402976  0.50377797     0.15800
C674        C  0.88193548  0.42537644  0.49863861    -0.23160
H675        H  0.93510079  0.30493433  0.93702707     0.06020
H676        H  0.88575113  0.29868697  0.93514976     0.09240
H677        H  0.91143855  0.28731335  0.96521755     0.09240
H678        H  0.87659545  0.44319573  0.98298503     0.09220
H679        H  0.90639927  0.43208142  0.51107313     0.09220
H680        H  0.85714669  0.42467617  0.51223756     0.06000
C681        C  0.13603326  0.45109328  0.99108423    -0.19800
C682        C  0.12354969  0.45637030  0.96459881    -0.06370
C683        C  0.14962285  0.46511932  0.94438821     0.14500
C684        C  0.18683018  0.47074125  0.95174512    -0.19860
C685        C  0.19866459  0.46838339  0.97884230    -0.06380
C686        C  0.17294790  0.45731454  0.99867223     0.14490
C687        C  0.18294780  0.95346530  0.52824135    -0.23210
H688        H  0.11605356  0.44410864  0.50646677     0.15770
H689        H  0.20631024  0.47859599  0.93637818     0.15800
C690        C  0.13854597  0.46869208  0.91503702    -0.23160
H691        H  0.15949343  0.94378665  0.54029095     0.06020
H692        H  0.18981850  0.97616545  0.53731738     0.09240
H693        H  0.20690429  0.43736306  0.53022192     0.09240
H694        H  0.11910973  0.48841256  0.91265607     0.09220
H695        H  0.12504932  0.44723001  0.90778045     0.09220
H696        H  0.16309321  0.47319433  0.90180243     0.06000
C697        C  0.34684493  0.29876740  0.69486730    -0.19800
C698        C  0.36391993  0.32346656  0.70854763    -0.06370
C699        C  0.34145365  0.34304076  0.72487591     0.14500
C700        C  0.30357158  0.33584096  0.72870982    -0.19860
C701        C  0.28747530  0.30955355  0.71690101    -0.06380
C702        C  0.30922061  0.29133440  0.69900073     0.14490
C703        C  0.29403383  0.26272617  0.68564225    -0.23210
H704        H  0.36352122  0.28403276  0.68180079     0.15770
H705        H  0.28684213  0.34995504  0.74227560     0.15800
C706        C  0.35714138  0.37073236  0.73929865    -0.23160
H707        H  0.31525263  0.25112654  0.67265894     0.06020
H708        H  0.27004732  0.26887372  0.67249964     0.09240
H709        H  0.28507231  0.24596056  0.70136293     0.09240
H710        H  0.36927680  0.38691659  0.72425206     0.09220
H711        H  0.37885535  0.36338236  0.75397110     0.09220
H712        H  0.33531961  0.38342354  0.75088067     0.06000
C713        C  0.30209769  0.23386769  0.81460918    -0.19800
C714        C  0.28583837  0.22049271  0.79154710    -0.06370
C715        C  0.30719541  0.19890929  0.77618821     0.14500
C716        C  0.34490771  0.19406187  0.78265731    -0.19860
C717        C  0.36220693  0.21031303  0.80374224    -0.06380
C718        C  0.33989804  0.22923697  0.82088012     0.14490
C719        C  0.35546877  0.24512207  0.84563326    -0.23210
H720        H  0.28581223  0.24968040  0.82692833     0.15770
H721        H  0.36155833  0.17883440  0.77001352     0.15800
C722        C  0.29136010  0.18149006  0.75234127    -0.23160
H723        H  0.33323138  0.25659994  0.85776851     0.06020
H724        H  0.37556532  0.26323447  0.83952119     0.09240
H725        H  0.36937223  0.22799282  0.85896187     0.09240
H726        H  0.28537021  0.19747893  0.73533732     0.09220
H727        H  0.26554988  0.16928936  0.75861153     0.09220
H728        H  0.31123623  0.16391630  0.74446471     0.06000
C729        C  0.61763091  0.11712956  0.76586124    -0.19800
C730        C  0.61452746  0.08918837  0.78003204    -0.06370
C731        C  0.58559261  0.08564728  0.79941072     0.14500
C732        C  0.56046985  0.11005329  0.80390185    -0.19860
C733        C  0.56402599  0.13811966  0.79005142    -0.06380
C734        C  0.59305801  0.14174981  0.77081941     0.14490
C735        C  0.59754672  0.17108501  0.75479850    -0.23210
H736        H  0.63968425  0.11981520  0.75091493     0.15770
H737        H  0.53810671  0.10735870  0.81859454     0.15800
C738        C  0.58022806  0.05599721  0.81480381    -0.23160
H739        H  0.62054166  0.16929368  0.73967924     0.06020
H740        H  0.60419502  0.19045812  0.76865206     0.09240
H741        H  0.57137898  0.17626119  0.74366309     0.09240
H742        H  0.60472135  0.05155286  0.82797235     0.09220
H743        H  0.57666947  0.03661312  0.80031884     0.09220
H744        H  0.55514698  0.05687777  0.82810843     0.06000
C745        C  0.55283719  0.42731891  0.72518456    -0.19800
C746        C  0.56677436  0.39774462  0.71902282    -0.06370
C747        C  0.60612015  0.39335394  0.71774864     0.14500
C748        C  0.62989206  0.41836049  0.72297428    -0.19860
C749        C  0.61562148  0.44736978  0.72980626    -0.06380
C750        C  0.57674753  0.45204071  0.73076046     0.14490
C751        C  0.56051926  0.48318939  0.73756499    -0.23210
H752        H  0.52295728  0.43117378  0.72596643     0.15770
H753        H  0.65990858  0.41503298  0.72265850     0.15800
C754        C  0.62366943  0.36250236  0.71162163    -0.23160
H755        H  0.52953958  0.48306242  0.73691364     0.06020
H756        H  0.57066595  0.50049994  0.72271039     0.09240
H757        H  0.56910089  0.49019861  0.75830654     0.09240
H758        H  0.61552332  0.35473504  0.69099960     0.09220
H759        H  0.61473420  0.34535908  0.72702368     0.09220
H760        H  0.65463660  0.36352530  0.71210157     0.06000
C761        C  0.08753806  0.33610044  0.79615053    -0.19800
C762        C  0.11607339  0.34201803  0.77727504    -0.06370
C763        C  0.11815809  0.37143369  0.76496326     0.14500
C764        C  0.09140769  0.39393420  0.77161231    -0.19860
C765        C  0.06206325  0.38762045  0.78966873    -0.06380
C766        C  0.06026804  0.35841590  0.80229781     0.14490
C767        C  0.03035952  0.35093893  0.82282846    -0.23210
H768        H  0.08608452  0.31365548  0.80567803     0.15770
H769        H  0.09299844  0.41647305  0.76226178     0.15800
C770        C  0.14896363  0.37961201  0.74532786    -0.23160
H771        H  0.03424404  0.32761220  0.83162457     0.06020
H772        H  0.00253257  0.35154566  0.81303331     0.09240
H773        H  0.03109768  0.36790794  0.83971663     0.09240
H774        H  0.14667861  0.36548041  0.72662254     0.09220
H775        H  0.17652579  0.37559674  0.75496227     0.09220
H776        H  0.14755645  0.40417091  0.73912636     0.06000
C777        C  0.80188863  0.99000628  0.81884639    -0.19800
C778        C  0.78280056  0.47098714  0.80056692    -0.06370
C779        C  0.80152832  0.44486631  0.78976417     0.14500
C780        C  0.83991409  0.44108343  0.79450145    -0.19860
C781        C  0.86023561  0.46274631  0.80958215    -0.06380
C782        C  0.84035218  0.48655344  0.82331211     0.14490
C783        C  0.85915744  0.00930061  0.84195035    -0.23210
H784        H  0.78744838  0.00949303  0.82783123     0.15770
H785        H  0.85446059  0.42197591  0.78500523     0.15800
C786        C  0.78163247  0.42103168  0.77289693    -0.23160
H787        H  0.83870293  0.02485693  0.85204030     0.06020
H788        H  0.87857297  0.02410888  0.83022981     0.09240
H789        H  0.87446871  0.99681018  0.85814182     0.09240
H790        H  0.77381504  0.43061153  0.75284547     0.09220
H791        H  0.75631385  0.41300535  0.78382805     0.09220
H792        H  0.79960097  0.40060943  0.76896195     0.06000
C793        C  0.12691136  0.17162189  0.71716873    -0.19800
C794        C  0.11328272  0.19797693  0.73031261    -0.06370
C795        C  0.07505577  0.20005532  0.73695327     0.14500
C796        C  0.05140190  0.17540886  0.73065780    -0.19860
C797        C  0.06497410  0.14836440  0.71824273    -0.06380
C798        C  0.10346883  0.14658664  0.71129724     0.14490
C799        C  0.12038508  0.11866951  0.69774224    -0.23210
H800        H  0.15639364  0.17027284  0.71221599     0.15770
H801        H  0.02206932  0.17722133  0.73588232     0.15800
C802        C  0.05894672  0.22852526  0.75014800    -0.23160
H803        H  0.15054361  0.12188308  0.69330806     0.06020
H804        H  0.10612979  0.11416334  0.67816009     0.09240
H805        H  0.11784812  0.09834586  0.71126780     0.09240
H806        H  0.06478152  0.24895227  0.73728258     0.09220
H807        H  0.07144145  0.23195625  0.77050792     0.09220
H808        H  0.02823697  0.22679808  0.75285150     0.06000
C809        C  0.85475149  0.07549195  0.74184348    -0.19800
C810        C  0.86473728  0.07894050  0.71455063    -0.06370
C811        C  0.83731104  0.07500344  0.69422414     0.14500
C812        C  0.80091392  0.06637479  0.70183571    -0.19860
C813        C  0.79161527  0.06098830  0.72914360    -0.06380
C814        C  0.81925885  0.06533582  0.74942539     0.14490
C815        C  0.81435206  0.05687134  0.77899201    -0.23210
H816        H  0.87595818  0.07786812  0.75739544     0.15770
H817        H  0.77985789  0.06306817  0.68634994     0.15800
C818        C  0.84610799  0.08012546  0.66461964    -0.23160
H819        H  0.81567053  0.07796843  0.79169804     0.06020
H820        H  0.83733957  0.04117107  0.78515272     0.09240
H821        H  0.78831549  0.04448832  0.78365030     0.09240
H822        H  0.86652273  0.06273817  0.65729908     0.09220
H823        H  0.85771874  0.10358426  0.66175592     0.09220
H824        H  0.82078099  0.07809212  0.65180466     0.06000
O825        O  0.99398257  0.54690756  0.15890316    -0.57310
C826        C  0.99647248  0.52789676  0.24314178     0.75310
O827        O  0.00301420  0.62742202  0.21514063    -0.58470
C828        C  0.99275785  0.57133978  0.14479504     0.75290
C829        C  0.90501316  0.58125895  0.20851140     0.77680
Cd830      Cd  0.98459327  0.57505842  0.20261769     1.37460
O831        O  0.99378059  0.52097084  0.21820813    -0.57310
O832        O  0.91976382  0.56577430  0.18964312    -0.56120
C833        C  0.03792822  0.62305321  0.21289166     0.77640
O834        O  0.92708895  0.59611984  0.22364990    -0.58490
O835        O  0.99731430  0.55622730  0.24883009    -0.56940
O836        O  0.98950958  0.59652409  0.15749875    -0.56930
O837        O  0.04803165  0.59610270  0.20610192    -0.56110
O838        O  0.00274591  0.01110454  0.28924106    -0.57310
C839        C  0.99339116  0.96446745  0.36536951     0.75310
O840        O  0.91947377  0.93848340  0.29852661    -0.58470
C841        C  0.99534304  0.00456155  0.26471249     0.75290
C842        C  0.03464124  0.91234291  0.29548311     0.77680
Cd843      Cd  0.98246737  0.96080449  0.30774458     1.37470
O844        O  0.99643763  0.98860171  0.35102464    -0.57310
O845        O  0.04506720  0.93986098  0.29938378    -0.56120
C846        C  0.90181051  0.96089920  0.30915339     0.77640
O847        O  0.99980602  0.90728784  0.29658120    -0.58490
O848        O  0.98740249  0.93951881  0.35293187    -0.56940
O849        O  0.98412135  0.97749481  0.25996853    -0.56930
O850        O  0.92171572  0.98229425  0.31850679    -0.56110
O851        O  0.66339047  0.98523472  0.22241686    -0.57310
C852        C  0.75421357  0.54893087  0.23601401     0.75310
O853        O  0.65343889  0.54540287  0.29087179    -0.58470
C854        C  0.64167646  0.97139196  0.23876318     0.75290
C855        C  0.74727865  0.98281523  0.28902032     0.77680
Cd856      Cd  0.69268095  0.51646569  0.25864828     1.37460
O857        O  0.73850562  0.52798928  0.22210148    -0.57310
O858        O  0.73740114  0.97546540  0.26531953    -0.56120
C859        C  0.64107981  0.56410135  0.27320064     0.77640
O860        O  0.72781092  0.50351992  0.30068225    -0.58490
O861        O  0.73738211  0.55781188  0.25722379    -0.56940
O862        O  0.64361282  0.97862764  0.26361727    -0.56930
O863        O  0.65292669  0.56063506  0.24907607    -0.56110
O864        O  0.50172381  0.76273964  0.29174941    -0.57310
C865        C  0.49314601  0.71478194  0.36618199     0.75310
O866        O  0.42300897  0.68792972  0.29466979    -0.58470
C867        C  0.49822381  0.75603001  0.26680777     0.75290
C868        C  0.53680681  0.66292600  0.29594380     0.77680
Cd869      Cd  0.48411842  0.71087494  0.30833702     1.37470
O870        O  0.49485023  0.73899476  0.35186366    -0.57310
O871        O  0.54694723  0.69056561  0.29957142    -0.56120
C872        C  0.40359211  0.70894409  0.30583160     0.77640
O873        O  0.50216168  0.65741499  0.29803701    -0.58490
O874        O  0.48939621  0.68957237  0.35367288    -0.56940
O875        O  0.49092508  0.72829137  0.26117241    -0.56930
O876        O  0.42166760  0.72971803  0.31782925    -0.56110
O877        O  0.50228070  0.77270171  0.22057369    -0.57310
C878        C  0.49232289  0.82177967  0.14590382     0.75310
O879        O  0.42409120  0.84808740  0.21628406    -0.58470
C880        C  0.49890998  0.77959905  0.24550408     0.75290
C881        C  0.53933473  0.87250835  0.21427683     0.77680
Cd882      Cd  0.48570657  0.82471692  0.20385868     1.37470
O883        O  0.49742879  0.79766993  0.15997171    -0.57310
O884        O  0.54896295  0.84591682  0.20618017    -0.56120
C885        C  0.40533595  0.82582315  0.20678659     0.77640
O886        O  0.50458391  0.87665121  0.21801554    -0.58490
O887        O  0.48579460  0.84649572  0.15866374    -0.56940
O888        O  0.49292435  0.80760152  0.25109941    -0.56930
O889        O  0.42408470  0.80438682  0.19598761    -0.56110
O890        O  0.23172947  0.75400658  0.29485580    -0.57310
C891        C  0.14255125  0.81691111  0.27035939     0.75310
O892        O  0.22932026  0.78117105  0.21472096    -0.58470
C893        C  0.24960585  0.73331918  0.28183520     0.75290
C894        C  0.13985072  0.72218884  0.23821633     0.77680
Cd895      Cd  0.19213389  0.76780712  0.25527157     1.37460
O896        O  0.15475321  0.79823677  0.28813061    -0.57310
O897        O  0.14262621  0.73065490  0.26274009    -0.56120
C898        C  0.25129678  0.79858138  0.22788187     0.77640
O899        O  0.16138155  0.73495986  0.22109592    -0.58490
O900        O  0.15351103  0.81265369  0.24615996    -0.56940
O901        O  0.23678271  0.72636231  0.25880739    -0.56930
O902        O  0.24239587  0.80451644  0.25223259    -0.56110
O903        O  0.98773630  0.01374661  0.46868553    -0.57310
C904        C  0.99634486  0.96452280  0.39503467     0.75310
O905        O  0.06099022  0.93807694  0.47250236    -0.58470
C906        C  0.98773454  0.00693753  0.49373282     0.75290
C907        C  0.94867547  0.91378190  0.46316682     0.77680
Cd908      Cd  0.00309432  0.96078712  0.45303745     1.37460
O909        O  0.99357814  0.98879817  0.40928358    -0.57310
O910        O  0.93943634  0.94162939  0.45935312    -0.56120
C911        C  0.08281340  0.95586208  0.45969611     0.77640
O912        O  0.98327280  0.90760154  0.46213087    -0.58490
O913        O  0.00111415  0.93948255  0.40762150    -0.56940
O914        O  0.99208434  0.97886123  0.49964556    -0.56930
O915        O  0.06765306  0.97470573  0.44366791    -0.56110
O916        O  0.98244786  0.52363623  0.03993727    -0.57310
C917        C  0.99482195  0.57134612  0.11509806     0.75310
O918        O  0.05899281  0.59871180  0.04172227    -0.58470
C919        C  0.98650582  0.53053999  0.01506441     0.75290
C920        C  0.94733561  0.62415671  0.04754296     0.77680
Cd921      Cd  0.99965264  0.57524731  0.05701927     1.37460
O922        O  0.98734233  0.54789966  0.10072937    -0.57310
O923        O  0.93655645  0.59686666  0.05226788    -0.56120
C924        C  0.07857491  0.57606394  0.04950437     0.77640
O925        O  0.98227529  0.62842019  0.04657509    -0.58490
O926        O  0.00354782  0.59569779  0.10262285    -0.56940
O927        O  0.99275309  0.55850080  0.00963075    -0.56930
O928        O  0.06201087  0.55451960  0.06171008    -0.56110
O929        O  0.32628405  0.54972017  0.47096294    -0.57310
C930        C  0.23544582  0.98187248  0.48631711     0.75310
O931        O  0.32946484  0.99195594  0.04138676    -0.58470
C932        C  0.34479643  0.56533491  0.48811389     0.75290
C933        C  0.23298742  0.55324914  0.02639748     0.77680
Cd934      Cd  0.29412640  0.51935665  0.00627085     1.37470
O935        O  0.25473085  0.49784087  0.46969561    -0.57310
O936        O  0.24424784  0.55506823  0.00207949    -0.56120
C937        C  0.34433125  0.97339952  0.02449533     0.77640
O938        O  0.25421650  0.53981748  0.04340378    -0.58490
O939        O  0.24766139  0.98020047  0.01032792    -0.56940
O940        O  0.33959786  0.55942140  0.01303620    -0.56930
O941        O  0.33610704  0.97646665  0.49961640    -0.56110
O942        O  0.48319157  0.76470893  0.47011468    -0.57310
C943        C  0.49516618  0.71513514  0.39588045     0.75310
O944        O  0.55932474  0.69035111  0.47163680    -0.58470
C945        C  0.48329336  0.75757422  0.49507937     0.75290
C946        C  0.45010762  0.66231659  0.46410198     0.77680
Cd947      Cd  0.50036914  0.71238622  0.45396416     1.37470
O948        O  0.48898289  0.73913610  0.40995104    -0.57310
O949        O  0.43833215  0.68816638  0.45563698    -0.56120
C950        C  0.58015299  0.71020072  0.46049630     0.77640
O951        O  0.48500865  0.65999826  0.46758459    -0.58490
O952        O  0.50256946  0.69065989  0.40866276    -0.56940
O953        O  0.48755663  0.72943294  0.50068593    -0.56930
O954        O  0.56403666  0.73005526  0.44591982    -0.56110
O955        O  0.47988261  0.77393843  0.04149932    -0.57310
C956        C  0.49396499  0.82189656  0.11620244     0.75310
O957        O  0.55790748  0.84583723  0.03942647    -0.58470
C958        C  0.48293618  0.78095095  0.01658191     0.75290
C959        C  0.44862821  0.87581075  0.04888426     0.77680
Cd960      Cd  0.49901933  0.82544325  0.05818857     1.37470
O961        O  0.48892680  0.79789937  0.10195201    -0.57310
O962        O  0.43690118  0.84916845  0.05510662    -0.56120
C963        C  0.57820549  0.82568127  0.05069215     0.77640
O964        O  0.48369425  0.87868814  0.04680882    -0.58490
O965        O  0.50006816  0.84674409  0.10362258    -0.56940
O966        O  0.48948217  0.80882365  0.01115512    -0.56930
O967        O  0.56230333  0.80696431  0.06647145    -0.56110
O968        O  0.75357788  0.78654211  0.04274523    -0.57310
C969        C  0.84289322  0.72157841  0.02306245     0.75310
O970        O  0.75539020  0.75216892  0.46617472    -0.58470
C971        C  0.73232737  0.80115396  0.02651142     0.75290
C972        C  0.84435389  0.81610957  0.48695703     0.77680
Cd973      Cd  0.79428510  0.76914270  0.00477480     1.37470
O974        O  0.83080503  0.74167213  0.03975334    -0.57310
O975        O  0.83268306  0.81430147  0.01122249    -0.56120
C976        C  0.73508530  0.73510988  0.48114619     0.77640
O977        O  0.83260162  0.79591654  0.47037410    -0.58490
O978        O  0.83300619  0.72423638  0.49851689    -0.56930
O979        O  0.74366512  0.80453139  0.00233276    -0.56930
O980        O  0.74640117  0.73083385  0.00518967    -0.56110
C981        C  0.64495796  0.82883207  0.06384153    -0.19800
C982        C  0.61790868  0.82223849  0.04413080    -0.06370
C983        C  0.62868437  0.80937855  0.01902709     0.14500
C984        C  0.66648323  0.80405811  0.01388216    -0.19860
C985        C  0.69381672  0.81035860  0.03351238    -0.06380
C986        C  0.68303210  0.82293326  0.05882591     0.14490
C987        C  0.71141545  0.83056206  0.08023273    -0.23210
H988        H  0.63618848  0.83820692  0.08326457     0.15770
H989        H  0.67460703  0.79363628  0.99470390     0.15800
C990        C  0.60018462  0.79981317  0.99816089    -0.23160
H991        H  0.69822886  0.84142337  0.09832871     0.06020
H992        H  0.73225980  0.84689326  0.07184258     0.09240
H993        H  0.72577277  0.80926585  0.08701586     0.09240
H994        H  0.58378900  0.82016814  0.49154685     0.09220
H995        H  0.58101196  0.78244515  0.00705896     0.09220
H996        H  0.61348100  0.78938629  0.47989935     0.06000
C997        C  0.64327142  0.72341648  0.44354785    -0.19800
C998        C  0.62107101  0.71115981  0.46445346    -0.06370
C999        C  0.63793452  0.70305362  0.48932286     0.14500
C1000       C  0.67606845  0.70871712  0.49297322    -0.19860
C1001       C  0.69789736  0.72314581  0.47281733    -0.06380
C1002       C  0.68136375  0.72961524  0.44734035     0.14490
C1003       C  0.70296076  0.74381430  0.42424083    -0.23210
H1004       H  0.63034409  0.72926474  0.42434443     0.15770
H1005       H  0.68830455  0.70342301  0.01252467     0.15800
C1006       C  0.61563101  0.69040352  0.01281425    -0.23160
H1007       H  0.68590438  0.74555019  0.40550138     0.06020
H1008       H  0.72777872  0.72940625  0.41945051     0.09240
H1009       H  0.71173551  0.76749892  0.42970445     0.09240
H1010       H  0.60333727  0.66788156  0.00715022     0.09220
H1011       H  0.59310358  0.70685890  0.01846127     0.09220
H1012       H  0.63317444  0.68665796  0.03108040     0.06000
C1013       C  0.38879136  0.63672587  0.45726073    -0.19800
C1014       C  0.42422444  0.63631677  0.46953010    -0.06370
C1015       C  0.43354083  0.61159237  0.48710541     0.14500
C1016       C  0.40706786  0.58858974  0.49223998    -0.19860
C1017       C  0.37186257  0.58913667  0.48000386    -0.06380
C1018       C  0.36257973  0.61335575  0.46217524     0.14490
C1019       C  0.32460085  0.61532290  0.44925027    -0.23210
H1020       H  0.38144946  0.65549927  0.44380440     0.15770
H1021       H  0.41383117  0.56996715  0.00604017     0.15800
C1022       C  0.47072043  0.60945506  0.50125969    -0.23160
H1023       H  0.32158157  0.63636642  0.43663470     0.06020
H1024       H  0.30269342  0.61592646  0.46526208     0.09240
H1025       H  0.32010650  0.59505510  0.43591991     0.09240
H1026       H  0.47535428  0.63040935  0.01373345     0.09220
H1027       H  0.49344940  0.60685001  0.48604779     0.09220
H1028       H  0.47223100  0.58924221  0.01502479     0.06000
C1029       C  0.40768514  0.95615221  0.03670133    -0.19800
C1030       C  0.37004273  0.94897753  0.03307795    -0.06370
C1031       C  0.35798894  0.91828906  0.03546327     0.14500
C1032       C  0.38418061  0.89512318  0.04110430    -0.19860
C1033       C  0.42237883  0.90186565  0.04401518    -0.06380
C1034       C  0.43416775  0.93304094  0.04205012     0.14490
C1035       C  0.47432848  0.94248096  0.04552098    -0.23210
H1036       H  0.41648811  0.97989343  0.03464822     0.15770
H1037       H  0.37473983  0.87152670  0.04269214     0.15800
C1038       C  0.31747029  0.91004215  0.03188745    -0.23160
H1039       H  0.47780751  0.96784936  0.04427138     0.06020
H1040       H  0.49175464  0.93211833  0.02919835     0.09240
H1041       H  0.48457230  0.93501463  0.06573662     0.09240
H1042       H  0.30815510  0.91644265  0.01115357     0.09220
H1043       H  0.30024648  0.92266231  0.04706905     0.09220
H1044       H  0.31262439  0.88499255  0.03465389     0.06000
C1045       C  0.90101525  0.70335803  0.04485076    -0.19800
C1046       C  0.86779279  0.69626574  0.03136842    -0.06370
C1047       C  0.85991488  0.66535861  0.02453858     0.14500
C1048       C  0.88606078  0.64232710  0.03069166    -0.19860
C1049       C  0.92029172  0.64949979  0.04291949    -0.06380
C1050       C  0.92764027  0.68042683  0.05046560     0.14490
C1051       C  0.96306728  0.68948059  0.06479013    -0.23210
H1052       H  0.90670693  0.72710865  0.05014109     0.15770
H1053       H  0.88012890  0.61866757  0.02524673     0.15800
C1054       C  0.82368541  0.65648959  0.01117549    -0.23160
H1055       H  0.96297409  0.71422756  0.07052243     0.06020
H1056       H  0.98746524  0.68558034  0.05126725     0.09240
H1057       H  0.96623612  0.67576447  0.08367111     0.09240
H1058       H  0.82173014  0.66711867  0.49074850     0.09220
H1059       H  0.79982912  0.66436672  0.02389034     0.09220
H1060       H  0.82134944  0.63116332  0.00855379     0.06000
C1061       C  0.16696972  0.55069999  0.01506344    -0.19800
C1062       C  0.19429812  0.56210309  0.03275831    -0.06370
C1063       C  0.18353907  0.57954053  0.05569057     0.14500
C1064       C  0.14531638  0.58517320  0.06034568    -0.19860
C1065       C  0.11821924  0.57313358  0.04278859    -0.06380
C1066       C  0.12907877  0.55553775  0.02004259     0.14490
C1067       C  0.10065680  0.54120794  0.00134928    -0.23210
H1068       H  0.17529758  0.53684247  0.99770579     0.15770
H1069       H  0.13650724  0.59827181  0.07800134     0.15800
C1070       C  0.21213190  0.59242997  0.07485074    -0.23160
H1071       H  0.11409152  0.52816549  0.98449946     0.06020
H1072       H  0.08285599  0.55947239  0.99234294     0.09240
H1073       H  0.08279812  0.52493803  0.01290210     0.09240
H1074       H  0.23167201  0.60754868  0.06352545     0.09220
H1075       H  0.22803031  0.57337634  0.08442257     0.09220
H1076       H  0.19891611  0.60625422  0.09128852     0.06000
C1077       C  0.92621992  0.86027763  0.45684351    -0.19800
C1078       C  0.92063222  0.88952868  0.46840171    -0.06370
C1079       C  0.88914075  0.89467141  0.48523409     0.14500
C1080       C  0.86459293  0.87027520  0.49046366    -0.19860
C1081       C  0.87013235  0.84104537  0.47890830    -0.06380
C1082       C  0.90115108  0.83603717  0.46162663     0.14490
C1083       C  0.90881334  0.80499105  0.44905250    -0.23210
H1084       H  0.95035361  0.85639547  0.44392610     0.15770
H1085       H  0.84082616  0.87402976  0.00377795     0.15800
C1086       C  0.88193546  0.92537644  0.99863859    -0.23160
H1087       H  0.93510079  0.80493435  0.43702707     0.06020
H1088       H  0.88575114  0.79868698  0.43514976     0.09240
H1089       H  0.91143855  0.78731336  0.46521754     0.09240
H1090       H  0.87659547  0.94319573  0.48298507     0.09220
H1091       H  0.90639924  0.93208142  0.01107311     0.09220
H1092       H  0.85714667  0.92467616  0.01223754     0.06000
C1093       C  0.13603330  0.95109319  0.49108422    -0.19800
C1094       C  0.12354972  0.95637028  0.46459882    -0.06370
C1095       C  0.14962285  0.96511934  0.44438821     0.14500
C1096       C  0.18683019  0.97074126  0.45174512    -0.19860
C1097       C  0.19866462  0.96838334  0.47884230    -0.06380
C1098       C  0.17294795  0.95731444  0.49867221     0.14490
C1099       C  0.18294772  0.45346548  0.02824137    -0.23210
H1100       H  0.11605351  0.94410875  0.00646680     0.15770
H1101       H  0.20631023  0.97859604  0.43637819     0.15800
C1102       C  0.13854596  0.96869216  0.41503704    -0.23160
H1103       H  0.15949333  0.44378689  0.04029099     0.06020
H1104       H  0.18981845  0.47616566  0.03731736     0.09240
H1105       H  0.20690420  0.93736320  0.03022199     0.09240
H1106       H  0.11910972  0.98841264  0.41265613     0.09220
H1107       H  0.12504930  0.94723010  0.40778044     0.09220
H1108       H  0.16309320  0.97319443  0.40180245     0.06000
C1109       C  0.34684493  0.79876739  0.19486730    -0.19800
C1110       C  0.36391992  0.82346656  0.20854762    -0.06370
C1111       C  0.34145363  0.84304076  0.22487589     0.14500
C1112       C  0.30357157  0.83584095  0.22870980    -0.19860
C1113       C  0.28747530  0.80955354  0.21690099    -0.06380
C1114       C  0.30922061  0.79133439  0.19900073     0.14490
C1115       C  0.29403384  0.76272615  0.18564225    -0.23210
H1116       H  0.36352122  0.78403275  0.18180078     0.15770
H1117       H  0.28684211  0.84995504  0.24227558     0.15800
C1118       C  0.35714136  0.87073236  0.23929863    -0.23160
H1119       H  0.31525264  0.75112652  0.17265894     0.06020
H1120       H  0.27004733  0.76887370  0.17249964     0.09240
H1121       H  0.28507232  0.74596054  0.20136292     0.09240
H1122       H  0.36927678  0.88691659  0.22425204     0.09220
H1123       H  0.37885532  0.86338237  0.25397109     0.09220
H1124       H  0.33531958  0.88342355  0.25088064     0.06000
C1125       C  0.30209768  0.73386768  0.31460917    -0.19800
C1126       C  0.28583837  0.72049269  0.29154710    -0.06370
C1127       C  0.30719541  0.69890928  0.27618821     0.14500
C1128       C  0.34490771  0.69406186  0.28265731    -0.19860
C1129       C  0.36220693  0.71031302  0.30374224    -0.06380
C1130       C  0.33989804  0.72923697  0.32088012     0.14490
C1131       C  0.35546876  0.74512207  0.34563325    -0.23210
H1132       H  0.28581222  0.74968039  0.32692832     0.15770
H1133       H  0.36155834  0.67883438  0.27001353     0.15800
C1134       C  0.29136011  0.68149004  0.25234126    -0.23160
H1135       H  0.33323137  0.75659994  0.35776850     0.06020
H1136       H  0.37556531  0.76323447  0.33952118     0.09240
H1137       H  0.36937222  0.72799283  0.35896187     0.09240
H1138       H  0.28537022  0.69747891  0.23533732     0.09220
H1139       H  0.26554989  0.66928934  0.25861153     0.09220
H1140       H  0.31123624  0.66391629  0.24446471     0.06000
C1141       C  0.61763092  0.61712952  0.26586132    -0.19800
C1142       C  0.61452746  0.58918835  0.28003213    -0.06370
C1143       C  0.58559260  0.58564727  0.29941081     0.14500
C1144       C  0.56046984  0.61005329  0.30390192    -0.19860
C1145       C  0.56402598  0.63811965  0.29005147    -0.06380
C1146       C  0.59305802  0.64174977  0.27081947     0.14490
C1147       C  0.59754674  0.67108497  0.25479854    -0.23210
H1148       H  0.63968426  0.61981515  0.25091501     0.15770
H1149       H  0.53810669  0.60735870  0.31859460     0.15800
C1150       C  0.58022804  0.55599721  0.31480391    -0.23160
H1151       H  0.62054168  0.66929363  0.23967929     0.06020
H1152       H  0.60419503  0.69045809  0.26865209     0.09240
H1153       H  0.57137901  0.67626114  0.24366312     0.09240
H1154       H  0.60472132  0.55155287  0.32797246     0.09220
H1155       H  0.57666946  0.53661311  0.30031895     0.09220
H1156       H  0.55514695  0.55687778  0.32810852     0.06000
C1157       C  0.55283719  0.92731890  0.22518462    -0.19800
C1158       C  0.56677437  0.89774461  0.21902287    -0.06370
C1159       C  0.60612015  0.89335392  0.21774871     0.14500
C1160       C  0.62989206  0.91836046  0.22297437    -0.19860
C1161       C  0.61562149  0.94736975  0.22980635    -0.06380
C1162       C  0.57674754  0.95204069  0.23076053     0.14490
C1163       C  0.56051928  0.98318938  0.23756506    -0.23210
H1164       H  0.52295729  0.93117377  0.22596647     0.15770
H1165       H  0.65990858  0.91503294  0.22265860     0.15800
C1166       C  0.62366943  0.86250234  0.21162169    -0.23160
H1167       H  0.52953960  0.98306241  0.23691370     0.06020
H1168       H  0.57066599  0.00049993  0.22271047     0.09240
H1169       H  0.56910089  0.99019859  0.25830662     0.09240
H1170       H  0.61552334  0.85473503  0.19099967     0.09220
H1171       H  0.61473418  0.84535906  0.22702374     0.09220
H1172       H  0.65463660  0.86352527  0.21210166     0.06000
C1173       C  0.08753808  0.83610042  0.29615053    -0.19800
C1174       C  0.11607341  0.84201801  0.27727504    -0.06370
C1175       C  0.11815810  0.87143367  0.26496327     0.14500
C1176       C  0.09140771  0.89393418  0.27161233    -0.19860
C1177       C  0.06206327  0.88762044  0.28966875    -0.06380
C1178       C  0.06026806  0.85841588  0.30229782     0.14490
C1179       C  0.03035954  0.85093891  0.32282847    -0.23210
H1180       H  0.08608453  0.81365545  0.30567803     0.15770
H1181       H  0.09299847  0.91647304  0.26226180     0.15800
C1182       C  0.14896364  0.87961199  0.24532787    -0.23160
H1183       H  0.03424407  0.82761218  0.33162458     0.06020
H1184       H  0.00253259  0.85154564  0.31303332     0.09240
H1185       H  0.03109771  0.86790791  0.33971665     0.09240
H1186       H  0.14667861  0.86548040  0.22662254     0.09220
H1187       H  0.17652580  0.87559672  0.25496228     0.09220
H1188       H  0.14755647  0.90417090  0.23912637     0.06000
C1189       C  0.80188864  0.49000620  0.31884650    -0.19800
C1190       C  0.78280059  0.97098709  0.30056699    -0.06370
C1191       C  0.80152836  0.94486628  0.28976422     0.14500
C1192       C  0.83991413  0.94108340  0.29450149    -0.19860
C1193       C  0.86023564  0.96274627  0.30958219    -0.06380
C1194       C  0.84035222  0.98655339  0.32331217     0.14490
C1195       C  0.85915746  0.50930051  0.34195046    -0.23210
H1196       H  0.78744839  0.50949294  0.32783135     0.15770
H1197       H  0.85446063  0.92197590  0.28500525     0.15800
C1198       C  0.78163251  0.92103165  0.27289696    -0.23160
H1199       H  0.83870295  0.52485681  0.35204043     0.06020
H1200       H  0.87857297  0.52410881  0.33022992     0.09240
H1201       H  0.87446875  0.49681007  0.35814191     0.09240
H1202       H  0.77381507  0.93061152  0.25284552     0.09220
H1203       H  0.75631389  0.91300532  0.28382808     0.09220
H1204       H  0.79960101  0.90060941  0.26896197     0.06000
C1205       C  0.12691134  0.67162187  0.21716872    -0.19800
C1206       C  0.11328271  0.69797691  0.23031260    -0.06370
C1207       C  0.07505576  0.70005530  0.23695327     0.14500
C1208       C  0.05140189  0.67540885  0.23065780    -0.19860
C1209       C  0.06497408  0.64836438  0.21824273    -0.06380
C1210       C  0.10346882  0.64658662  0.21129723     0.14490
C1211       C  0.12038506  0.61866949  0.19774222    -0.23210
H1212       H  0.15639362  0.67027283  0.21221598     0.15770
H1213       H  0.02206931  0.67722132  0.23588232     0.15800
C1214       C  0.05894671  0.72852524  0.25014800    -0.23160
H1215       H  0.15054359  0.62188306  0.19330805     0.06020
H1216       H  0.10612977  0.61416333  0.17816008     0.09240
H1217       H  0.11784810  0.59834584  0.21126779     0.09240
H1218       H  0.06478151  0.74895226  0.23728257     0.09220
H1219       H  0.07144144  0.73195623  0.27050791     0.09220
H1220       H  0.02823696  0.72679807  0.25285150     0.06000
C1221       C  0.85475151  0.57549190  0.24184357    -0.19800
C1222       C  0.86473728  0.57894046  0.21455072    -0.06370
C1223       C  0.83731101  0.57500340  0.19422424     0.14500
C1224       C  0.80091390  0.56637476  0.20183584    -0.19860
C1225       C  0.79161527  0.56098826  0.22914373    -0.06380
C1226       C  0.81925888  0.56533577  0.24942551     0.14490
C1227       C  0.81435212  0.55687129  0.27899213    -0.23210
H1228       H  0.87595822  0.57786807  0.25739553     0.15770
H1229       H  0.77985785  0.56306813  0.18635008     0.15800
C1230       C  0.84610792  0.58012542  0.16461974    -0.23160
H1231       H  0.81567060  0.57796838  0.29169816     0.06020
H1232       H  0.83733964  0.54117102  0.28515283     0.09240
H1233       H  0.78831556  0.54448826  0.28365043     0.09240
H1234       H  0.86652266  0.56273813  0.15729917     0.09220
H1235       H  0.85771867  0.60358422  0.16175602     0.09220
H1236       H  0.82078092  0.57809208  0.15180478     0.06000
O1237       O  0.99398255  0.54690757  0.65890315    -0.57310
C1238       C  0.99647248  0.52789679  0.74314177     0.75310
O1239       O  0.00301421  0.62742204  0.71514062    -0.58470
C1240       C  0.99275789  0.57133980  0.64479502     0.75290
C1241       C  0.90501317  0.58125899  0.70851133     0.77680
Cd1242     Cd  0.98459329  0.57505844  0.70261767     1.37460
O1243       O  0.99378063  0.52097086  0.71820812    -0.57310
O1244       O  0.91976384  0.56577433  0.68964306    -0.56120
C1245       C  0.03792823  0.62305323  0.71289166     0.77640
O1246       O  0.92708895  0.59611987  0.72364984    -0.58490
O1247       O  0.99731425  0.55622733  0.74883009    -0.56940
O1248       O  0.98950969  0.59652411  0.65749874    -0.56930
O1249       O  0.04803166  0.59610271  0.70610192    -0.56110
O1250       O  0.00274586  0.01110456  0.78924105    -0.57310
C1251       C  0.99339113  0.96446746  0.86536950     0.75310
O1252       O  0.91947373  0.93848342  0.79852658    -0.58470
C1253       C  0.99534301  0.00456157  0.76471248     0.75290
C1254       C  0.03464121  0.91234292  0.79548310     0.77680
Cd1255     Cd  0.98246733  0.96080450  0.80774456     1.37470
O1256       O  0.99643761  0.98860172  0.85102462    -0.57310
O1257       O  0.04506717  0.93986099  0.79938376    -0.56120
C1258       C  0.90181048  0.96089923  0.80915336     0.77640
O1259       O  0.99980600  0.90728785  0.79658120    -0.58490
O1260       O  0.98740245  0.93951882  0.85293185    -0.56940
O1261       O  0.98412134  0.97749483  0.75996851    -0.56930
O1262       O  0.92171568  0.98229426  0.81850677    -0.56110
O1263       O  0.66339047  0.98523473  0.72241675    -0.57310
C1264       C  0.75421355  0.54893092  0.73601387     0.75310
O1265       O  0.65343891  0.54540290  0.79087167    -0.58470
C1266       C  0.64167644  0.97139200  0.73876307     0.75290
C1267       C  0.74727863  0.98281527  0.78902023     0.77680
Cd1268     Cd  0.69268096  0.51646573  0.75864816     1.37460
O1269       O  0.73850563  0.52798930  0.72210135    -0.57310
O1270       O  0.73740113  0.97546543  0.76531944    -0.56120
C1271       C  0.64107981  0.56410138  0.77320053     0.77640
O1272       O  0.72781092  0.50351998  0.80068213    -0.58490
O1273       O  0.73738207  0.55781194  0.75722363    -0.56940
O1274       O  0.64361279  0.97862770  0.76361716    -0.56930
O1275       O  0.65292667  0.56063509  0.74907596    -0.56110
O1276       O  0.50172382  0.76273964  0.79174940    -0.57310
C1277       C  0.49314602  0.71478195  0.86618199     0.75310
O1278       O  0.42300897  0.68792971  0.79466979    -0.58470
C1279       C  0.49822381  0.75603002  0.76680776     0.75290
C1280       C  0.53680681  0.66292601  0.79594377     0.77680
Cd1281     Cd  0.48411842  0.71087495  0.80833701     1.37470
O1282       O  0.49485023  0.73899476  0.85186366    -0.57310
O1283       O  0.54694723  0.69056562  0.79957140    -0.56120
C1284       C  0.40359211  0.70894410  0.80583160     0.77640
O1285       O  0.50216169  0.65741500  0.79803699    -0.58490
O1286       O  0.48939623  0.68957238  0.85367288    -0.56940
O1287       O  0.49092507  0.72829137  0.76117240    -0.56930
O1288       O  0.42166760  0.72971804  0.81782923    -0.56110
O1289       O  0.50228069  0.77270171  0.72057368    -0.57310
C1290       C  0.49232288  0.82177966  0.64590381     0.75310
O1291       O  0.42409121  0.84808739  0.71628406    -0.58470
C1292       C  0.49890998  0.77959905  0.74550408     0.75290
C1293       C  0.53933473  0.87250835  0.71427680     0.77680
Cd1294     Cd  0.48570657  0.82471691  0.70385867     1.37470
O1295       O  0.49742880  0.79766992  0.65997170    -0.57310
O1296       O  0.54896295  0.84591682  0.70618014    -0.56120
C1297       C  0.40533595  0.82582315  0.70678659     0.77640
O1298       O  0.50458391  0.87665121  0.71801551    -0.58490
O1299       O  0.48579456  0.84649571  0.65866373    -0.56940
O1300       O  0.49292436  0.80760152  0.75109940    -0.56930
O1301       O  0.42408470  0.80438682  0.69598760    -0.56110
O1302       O  0.23172947  0.75400659  0.79485581    -0.57310
C1303       C  0.14255124  0.81691112  0.77035940     0.75310
O1304       O  0.22932026  0.78117107  0.71472098    -0.58470
C1305       C  0.24960585  0.73331919  0.78183522     0.75290
C1306       C  0.13985072  0.72218885  0.73821634     0.77680
Cd1307     Cd  0.19213389  0.76780714  0.75527158     1.37460
O1308       O  0.15475320  0.79823679  0.78813062    -0.57310
O1309       O  0.14262621  0.73065492  0.76274011    -0.56120
C1310       C  0.25129678  0.79858139  0.72788189     0.77640
O1311       O  0.16138155  0.73495988  0.72109594    -0.58490
O1312       O  0.15351103  0.81265371  0.74615997    -0.56940
O1313       O  0.23678270  0.72636232  0.75880740    -0.56930
O1314       O  0.24239588  0.80451645  0.75223261    -0.56110
O1315       O  0.98773628  0.01374660  0.96868553    -0.57310
C1316       C  0.99634483  0.96452281  0.89503465     0.75310
O1317       O  0.06099019  0.93807695  0.97250235    -0.58470
C1318       C  0.98773453  0.00693752  0.99373282     0.75290
C1319       C  0.94867545  0.91378190  0.96316680     0.77680
Cd1320     Cd  0.00309430  0.96078712  0.95303744     1.37460
O1321       O  0.99357811  0.98879817  0.90928357    -0.57310
O1322       O  0.93943633  0.94162938  0.95935311    -0.56120
C1323       C  0.08281338  0.95586210  0.95969610     0.77640
O1324       O  0.98327278  0.90760154  0.96213085    -0.58490
O1325       O  0.00111413  0.93948256  0.90762148    -0.56940
O1326       O  0.99208433  0.97886121  0.99964555    -0.56930
O1327       O  0.06765304  0.97470573  0.94366790    -0.56110
O1328       O  0.98244784  0.52363626  0.53993727    -0.57310
C1329       C  0.99482199  0.57134613  0.61509805     0.75310
O1330       O  0.05899285  0.59871185  0.54172236    -0.58470
C1331       C  0.98650583  0.53054001  0.51506440     0.75290
C1332       C  0.94733561  0.62415672  0.54754294     0.77680
Cd1333     Cd  0.99965265  0.57524733  0.55701926     1.37460
O1334       O  0.98734231  0.54789969  0.60072936    -0.57310
O1335       O  0.93655646  0.59686668  0.55226789    -0.56120
C1336       C  0.07857490  0.57606392  0.54950434     0.77640
O1337       O  0.98227528  0.62842019  0.54657505    -0.58490
O1338       O  0.00354791  0.59569779  0.60262284    -0.56940
O1339       O  0.99275311  0.55850082  0.50963074    -0.56930
O1340       O  0.06201083  0.55451952  0.56170995    -0.56110
O1341       O  0.32628405  0.54972017  0.97096293    -0.57310
C1342       C  0.23544580  0.98187250  0.98631711     0.75310
O1343       O  0.32946484  0.99195593  0.54138677    -0.58470
C1344       C  0.34479643  0.56533492  0.98811388     0.75290
C1345       C  0.23298742  0.55324914  0.52639747     0.77680
Cd1346     Cd  0.29412640  0.51935664  0.50627085     1.37470
O1347       O  0.25473082  0.49784090  0.96969560    -0.57310
O1348       O  0.24424785  0.55506821  0.50207949    -0.56120
C1349       C  0.34433126  0.97339952  0.52449534     0.77640
O1350       O  0.25421650  0.53981749  0.54340379    -0.58490
O1351       O  0.24766139  0.98020046  0.51032793    -0.56940
O1352       O  0.33959786  0.55942139  0.51303621    -0.56930
O1353       O  0.33610703  0.97646665  0.99961638    -0.56110
O1354       O  0.48319160  0.76470897  0.97011467    -0.57310
C1355       C  0.49516619  0.71513514  0.89588044     0.75310
O1356       O  0.55932473  0.69035113  0.97163681    -0.58470
C1357       C  0.48329336  0.75757425  0.99507935     0.75290
C1358       C  0.45010761  0.66231661  0.96410197     0.77680
Cd1359     Cd  0.50036913  0.71238624  0.95396416     1.37470
O1360       O  0.48898287  0.73913611  0.90995104    -0.57310
O1361       O  0.43833214  0.68816640  0.95563697    -0.56120
C1362       C  0.58015298  0.71020074  0.96049630     0.77640
O1363       O  0.48500864  0.65999828  0.96758459    -0.58490
O1364       O  0.50256948  0.69065991  0.90866276    -0.56940
O1365       O  0.48755659  0.72943297  0.00068592    -0.56930
O1366       O  0.56403666  0.73005527  0.94591981    -0.56110
O1367       O  0.47988265  0.77393840  0.54149934    -0.57310
C1368       C  0.49396497  0.82189655  0.61620243     0.75310
O1369       O  0.55790744  0.84583716  0.53942636    -0.58470
C1370       C  0.48293618  0.78095092  0.51658192     0.75290
C1371       C  0.44862821  0.87581074  0.54888427     0.77680
Cd1372     Cd  0.49901933  0.82544324  0.55818857     1.37470
O1373       O  0.48892681  0.79789935  0.60195201    -0.57310
O1374       O  0.43690118  0.84916844  0.55510660    -0.56120
C1375       C  0.57820549  0.82568129  0.55069214     0.77640
O1376       O  0.48369425  0.87868814  0.54680884    -0.58490
O1377       O  0.50006811  0.84674408  0.60362257    -0.56940
O1378       O  0.48948212  0.80882362  0.51115513    -0.56930
O1379       O  0.56230336  0.80696442  0.56647153    -0.56110
O1380       O  0.75357787  0.78654212  0.54274522    -0.57310
C1381       C  0.84289321  0.72157841  0.52306245     0.75310
O1382       O  0.75539020  0.75216891  0.96617472    -0.58470
C1383       C  0.73232737  0.80115397  0.52651141     0.75290
C1384       C  0.84435388  0.81610957  0.98695703     0.77680
Cd1385     Cd  0.79428509  0.76914271  0.50477480     1.37470
O1386       O  0.83080502  0.74167213  0.53975334    -0.57310
O1387       O  0.83268306  0.81430148  0.51122249    -0.56120
C1388       C  0.73508529  0.73510987  0.98114620     0.77640
O1389       O  0.83260162  0.79591653  0.97037410    -0.58490
O1390       O  0.83300619  0.72423637  0.99851689    -0.56930
O1391       O  0.74366513  0.80453140  0.50233275    -0.56930
O1392       O  0.74640117  0.73083386  0.50518966    -0.56110
C1393       C  0.64495796  0.82883205  0.56384153    -0.19800
C1394       C  0.61790868  0.82223851  0.54413078    -0.06370
C1395       C  0.62868438  0.80937862  0.51902705     0.14500
C1396       C  0.66648324  0.80405818  0.51388214    -0.19860
C1397       C  0.69381671  0.81035862  0.53351237    -0.06380
C1398       C  0.68303209  0.82293324  0.55882592     0.14490
C1399       C  0.71141543  0.83056199  0.58023275    -0.23210
H1400       H  0.63618847  0.83820686  0.58326459     0.15770
H1401       H  0.67460704  0.79363638  0.49470386     0.15800
C1402       C  0.60018463  0.79981328  0.49816084    -0.23160
H1403       H  0.69822884  0.84142327  0.59832874     0.06020
H1404       H  0.73225979  0.84689320  0.57184264     0.09240
H1405       H  0.72577274  0.80926577  0.58701586     0.09240
H1406       H  0.58378897  0.82016802  0.99154689     0.09220
H1407       H  0.58101196  0.78244526  0.50705888     0.09220
H1408       H  0.61348098  0.78938616  0.97989941     0.06000
C1409       C  0.64327142  0.72341648  0.94354785    -0.19800
C1410       C  0.62107101  0.71115982  0.96445347    -0.06370
C1411       C  0.63793451  0.70305363  0.98932287     0.14500
C1412       C  0.67606844  0.70871712  0.99297322    -0.19860
C1413       C  0.69789736  0.72314581  0.97281734    -0.06380
C1414       C  0.68136375  0.72961524  0.94734036     0.14490
C1415       C  0.70296077  0.74381430  0.92424084    -0.23210
H1416       H  0.63034409  0.72926474  0.92434444     0.15770
H1417       H  0.68830456  0.70342300  0.51252466     0.15800
C1418       C  0.61563102  0.69040349  0.51281424    -0.23160
H1419       H  0.68590438  0.74555018  0.90550138     0.06020
H1420       H  0.72777872  0.72940624  0.91945052     0.09240
H1421       H  0.71173552  0.76749891  0.92970445     0.09240
H1422       H  0.60333729  0.66788154  0.50715020     0.09220
H1423       H  0.59310359  0.70685888  0.51846127     0.09220
H1424       H  0.63317446  0.68665794  0.53108039     0.06000
C1425       C  0.38879136  0.63672587  0.95726072    -0.19800
C1426       C  0.42422443  0.63631678  0.96953009    -0.06370
C1427       C  0.43354082  0.61159239  0.98710541     0.14500
C1428       C  0.40706785  0.58858976  0.99223998    -0.19860
C1429       C  0.37186257  0.58913668  0.98000385    -0.06380
C1430       C  0.36257974  0.61335575  0.96217522     0.14490
C1431       C  0.32460086  0.61532290  0.94925024    -0.23210
H1432       H  0.38144947  0.65549927  0.94380438     0.15770
H1433       H  0.41383118  0.56996712  0.50604016     0.15800
C1434       C  0.47072041  0.60945509  0.00125971    -0.23160
H1435       H  0.32158159  0.63636641  0.93663466     0.06020
H1436       H  0.30269342  0.61592645  0.96526204     0.09240
H1437       H  0.32010653  0.59505508  0.93591989     0.09240
H1438       H  0.47535431  0.63040931  0.51373344     0.09220
H1439       H  0.49344939  0.60685004  0.98604781     0.09220
H1440       H  0.47223103  0.58924217  0.51502477     0.06000
C1441       C  0.40768514  0.95615221  0.53670135    -0.19800
C1442       C  0.37004274  0.94897752  0.53307796    -0.06370
C1443       C  0.35798894  0.91828906  0.53546328     0.14500
C1444       C  0.38418061  0.89512318  0.54110431    -0.19860
C1445       C  0.42237883  0.90186565  0.54401520    -0.06380
C1446       C  0.43416775  0.93304093  0.54205014     0.14490
C1447       C  0.47432848  0.94248095  0.54552100    -0.23210
H1448       H  0.41648811  0.97989343  0.53464824     0.15770
H1449       H  0.37473983  0.87152669  0.54269214     0.15800
C1450       C  0.31747029  0.91004215  0.53188745    -0.23160
H1451       H  0.47780751  0.96784936  0.54427140     0.06020
H1452       H  0.49175464  0.93211833  0.52919837     0.09240
H1453       H  0.48457230  0.93501462  0.56573664     0.09240
H1454       H  0.30815511  0.91644265  0.51115357     0.09220
H1455       H  0.30024648  0.92266230  0.54706905     0.09220
H1456       H  0.31262439  0.88499254  0.53465388     0.06000
C1457       C  0.90101525  0.70335804  0.54485075    -0.19800
C1458       C  0.86779278  0.69626574  0.53136842    -0.06370
C1459       C  0.85991487  0.66535862  0.52453857     0.14500
C1460       C  0.88606078  0.64232711  0.53069165    -0.19860
C1461       C  0.92029171  0.64949980  0.54291947    -0.06380
C1462       C  0.92764027  0.68042684  0.55046559     0.14490
C1463       C  0.96306728  0.68948059  0.56479012    -0.23210
H1464       H  0.90670692  0.72710865  0.55014109     0.15770
H1465       H  0.88012889  0.61866758  0.52524672     0.15800
C1466       C  0.82368540  0.65648960  0.51117549    -0.23160
H1467       H  0.96297408  0.71422756  0.57052243     0.06020
H1468       H  0.98746524  0.68558034  0.55126724     0.09240
H1469       H  0.96623612  0.67576447  0.58367109     0.09240
H1470       H  0.82173015  0.66711866  0.99074850     0.09220
H1471       H  0.79982911  0.66436673  0.52389034     0.09220
H1472       H  0.82134943  0.63116333  0.50855379     0.06000
C1473       C  0.16696972  0.55069988  0.51506348    -0.19800
C1474       C  0.19429812  0.56210307  0.53275830    -0.06370
C1475       C  0.18353907  0.57954061  0.55569050     0.14500
C1476       C  0.14531637  0.58517328  0.56034560    -0.19860
C1477       C  0.11821924  0.57313356  0.54278857    -0.06380
C1478       C  0.12907877  0.55553763  0.52004262     0.14490
C1479       C  0.10065680  0.54120774  0.50134936    -0.23210
H1480       H  0.17529759  0.53684229  0.49770587     0.15770
H1481       H  0.13650724  0.59827196  0.57800122     0.15800
C1482       C  0.21213191  0.59243015  0.57485062    -0.23160
H1483       H  0.11409153  0.52816524  0.48449957     0.06020
H1484       H  0.08285597  0.55947214  0.49234298     0.09240
H1485       H  0.08279815  0.52493786  0.51290223     0.09240
H1486       H  0.23167199  0.60754883  0.56352527     0.09220
H1487       H  0.22803034  0.57337658  0.58442250     0.09220
H1488       H  0.19891611  0.60625447  0.59128835     0.06000
C1489       C  0.92621991  0.86027762  0.95684350    -0.19800
C1490       C  0.92063220  0.88952868  0.96840170    -0.06370
C1491       C  0.88914073  0.89467140  0.98523407     0.14500
C1492       C  0.86459291  0.87027519  0.99046364    -0.19860
C1493       C  0.87013234  0.84104536  0.97890829    -0.06380
C1494       C  0.90115107  0.83603716  0.96162662     0.14490
C1495       C  0.90881334  0.80499104  0.94905250    -0.23210
H1496       H  0.95035360  0.85639546  0.94392609     0.15770
H1497       H  0.84082617  0.87402976  0.50377797     0.15800
C1498       C  0.88193548  0.92537644  0.49863862    -0.23160
H1499       H  0.93510079  0.80493433  0.93702708     0.06020
H1500       H  0.88575114  0.79868697  0.93514976     0.09240
H1501       H  0.91143855  0.78731335  0.96521755     0.09240
H1502       H  0.87659544  0.94319573  0.98298504     0.09220
H1503       H  0.90639926  0.93208142  0.51107314     0.09220
H1504       H  0.85714669  0.92467616  0.51223757     0.06000
C1505       C  0.13603325  0.95109328  0.99108424    -0.19800
C1506       C  0.12354969  0.95637030  0.96459882    -0.06370
C1507       C  0.14962284  0.96511932  0.94438821     0.14500
C1508       C  0.18683017  0.97074125  0.95174512    -0.19860
C1509       C  0.19866459  0.96838338  0.97884231    -0.06380
C1510       C  0.17294789  0.95731454  0.99867223     0.14490
C1511       C  0.18294779  0.45346533  0.52824135    -0.23210
H1512       H  0.11605357  0.94410861  0.50646677     0.15770
H1513       H  0.20631023  0.97859598  0.93637819     0.15800
C1514       C  0.13854597  0.96869207  0.91503703    -0.23160
H1515       H  0.15949342  0.44378670  0.54029095     0.06020
H1516       H  0.18981849  0.47616549  0.53731737     0.09240
H1517       H  0.20690431  0.93736303  0.53022191     0.09240
H1518       H  0.11910972  0.98841255  0.91265608     0.09220
H1519       H  0.12504931  0.94723000  0.90778046     0.09220
H1520       H  0.16309321  0.97319432  0.90180244     0.06000
C1521       C  0.34684493  0.79876739  0.69486731    -0.19800
C1522       C  0.36391992  0.82346656  0.70854763    -0.06370
C1523       C  0.34145364  0.84304076  0.72487591     0.14500
C1524       C  0.30357157  0.83584095  0.72870982    -0.19860
C1525       C  0.28747530  0.80955355  0.71690101    -0.06380
C1526       C  0.30922060  0.79133439  0.69900074     0.14490
C1527       C  0.29403383  0.76272616  0.68564227    -0.23210
H1528       H  0.36352122  0.78403275  0.68180080     0.15770
H1529       H  0.28684212  0.84995504  0.74227560     0.15800
C1530       C  0.35714137  0.87073236  0.73929864    -0.23160
H1531       H  0.31525263  0.75112652  0.67265895     0.06020
H1532       H  0.27004732  0.76887370  0.67249965     0.09240
H1533       H  0.28507231  0.74596055  0.70136294     0.09240
H1534       H  0.36927679  0.88691659  0.72425205     0.09220
H1535       H  0.37885534  0.86338237  0.75397110     0.09220
H1536       H  0.33531960  0.88342355  0.75088065     0.06000
C1537       C  0.30209769  0.73386769  0.81460918    -0.19800
C1538       C  0.28583836  0.72049270  0.79154711    -0.06370
C1539       C  0.30719540  0.69890929  0.77618822     0.14500
C1540       C  0.34490770  0.69406187  0.78265731    -0.19860
C1541       C  0.36220693  0.71031303  0.80374224    -0.06380
C1542       C  0.33989804  0.72923697  0.82088012     0.14490
C1543       C  0.35546877  0.74512207  0.84563326    -0.23210
H1544       H  0.28581223  0.74968039  0.82692833     0.15770
H1545       H  0.36155833  0.67883439  0.77001353     0.15800
C1546       C  0.29136010  0.68149005  0.75234127    -0.23160
H1547       H  0.33323138  0.75659994  0.85776851     0.06020
H1548       H  0.37556532  0.76323447  0.83952119     0.09240
H1549       H  0.36937223  0.72799282  0.85896187     0.09240
H1550       H  0.28537020  0.69747892  0.73533733     0.09220
H1551       H  0.26554988  0.66928935  0.75861154     0.09220
H1552       H  0.31123623  0.66391630  0.74446471     0.06000
C1553       C  0.61763091  0.61712956  0.76586124    -0.19800
C1554       C  0.61452747  0.58918837  0.78003204    -0.06370
C1555       C  0.58559261  0.58564728  0.79941073     0.14500
C1556       C  0.56046985  0.61005330  0.80390186    -0.19860
C1557       C  0.56402599  0.63811966  0.79005142    -0.06380
C1558       C  0.59305801  0.64174980  0.77081941     0.14490
C1559       C  0.59754672  0.67108501  0.75479850    -0.23210
H1560       H  0.63968424  0.61981519  0.75091492     0.15770
H1561       H  0.53810672  0.60735870  0.81859455     0.15800
C1562       C  0.58022807  0.55599722  0.81480383    -0.23160
H1563       H  0.62054165  0.66929368  0.73967923     0.06020
H1564       H  0.60419501  0.69045812  0.76865205     0.09240
H1565       H  0.57137897  0.67626118  0.74366309     0.09240
H1566       H  0.60472136  0.55155288  0.82797236     0.09220
H1567       H  0.57666948  0.53661313  0.80031886     0.09220
H1568       H  0.55514699  0.55687778  0.82810845     0.06000
C1569       C  0.55283718  0.92731891  0.72518457    -0.19800
C1570       C  0.56677436  0.89774462  0.71902281    -0.06370
C1571       C  0.60612015  0.89335395  0.71774862     0.14500
C1572       C  0.62989205  0.91836050  0.72297427    -0.19860
C1573       C  0.61562147  0.94736978  0.72980625    -0.06380
C1574       C  0.57674752  0.95204071  0.73076047     0.14490
C1575       C  0.56051926  0.98318939  0.73756500    -0.23210
H1576       H  0.52295728  0.93117378  0.72596644     0.15770
H1577       H  0.65990857  0.91503299  0.72265848     0.15800
C1578       C  0.62366943  0.86250237  0.71162160    -0.23160
H1579       H  0.52953958  0.98306241  0.73691366     0.06020
H1580       H  0.57066594  0.00049994  0.72271040     0.09240
H1581       H  0.56910089  0.99019861  0.75830656     0.09240
H1582       H  0.61552331  0.85473506  0.69099958     0.09220
H1583       H  0.61473421  0.84535909  0.72702365     0.09220
H1584       H  0.65463660  0.86352531  0.71210154     0.06000
C1585       C  0.08753806  0.83610044  0.79615053    -0.19800
C1586       C  0.11607339  0.84201803  0.77727504    -0.06370
C1587       C  0.11815808  0.87143369  0.76496326     0.14500
C1588       C  0.09140768  0.89393419  0.77161232    -0.19860
C1589       C  0.06206324  0.88762045  0.78966874    -0.06380
C1590       C  0.06026804  0.85841590  0.80229782     0.14490
C1591       C  0.03035952  0.85093893  0.82282847    -0.23210
H1592       H  0.08608452  0.81365548  0.80567804     0.15770
H1593       H  0.09299843  0.91647305  0.76226178     0.15800
C1594       C  0.14896362  0.87961200  0.74532786    -0.23160
H1595       H  0.03424405  0.82761220  0.83162458     0.06020
H1596       H  0.00253257  0.85154566  0.81303332     0.09240
H1597       H  0.03109769  0.86790794  0.83971665     0.09240
H1598       H  0.14667859  0.86548040  0.72662254     0.09220
H1599       H  0.17652578  0.87559674  0.75496227     0.09220
H1600       H  0.14755644  0.90417091  0.73912636     0.06000
C1601       C  0.80188863  0.49000628  0.81884640    -0.19800
C1602       C  0.78280056  0.97098714  0.80056692    -0.06370
C1603       C  0.80152832  0.94486631  0.78976417     0.14500
C1604       C  0.83991409  0.94108343  0.79450145    -0.19860
C1605       C  0.86023561  0.96274631  0.80958215    -0.06380
C1606       C  0.84035218  0.98655344  0.82331211     0.14490
C1607       C  0.85915744  0.50930061  0.84195036    -0.23210
H1608       H  0.78744838  0.50949303  0.82783124     0.15770
H1609       H  0.85446059  0.92197591  0.78500523     0.15800
C1610       C  0.78163248  0.92103168  0.77289692    -0.23160
H1611       H  0.83870293  0.52485692  0.85204031     0.06020
H1612       H  0.87857297  0.52410888  0.83022982     0.09240
H1613       H  0.87446872  0.49681018  0.85814183     0.09240
H1614       H  0.77381505  0.93061153  0.75284547     0.09220
H1615       H  0.75631385  0.91300535  0.78382804     0.09220
H1616       H  0.79960098  0.90060943  0.76896194     0.06000
C1617       C  0.12691135  0.67162189  0.71716873    -0.19800
C1618       C  0.11328272  0.69797693  0.73031261    -0.06370
C1619       C  0.07505577  0.70005532  0.73695328     0.14500
C1620       C  0.05140189  0.67540886  0.73065780    -0.19860
C1621       C  0.06497409  0.64836440  0.71824273    -0.06380
C1622       C  0.10346883  0.64658664  0.71129724     0.14490
C1623       C  0.12038508  0.61866952  0.69774223    -0.23210
H1624       H  0.15639363  0.67027285  0.71221599     0.15770
H1625       H  0.02206932  0.67722133  0.73588232     0.15800
C1626       C  0.05894671  0.72852525  0.75014801    -0.23160
H1627       H  0.15054361  0.62188308  0.69330805     0.06020
H1628       H  0.10612978  0.61416335  0.67816008     0.09240
H1629       H  0.11784811  0.59834586  0.71126779     0.09240
H1630       H  0.06478151  0.74895227  0.73728259     0.09220
H1631       H  0.07144144  0.73195624  0.77050793     0.09220
H1632       H  0.02823697  0.72679808  0.75285151     0.06000
C1633       C  0.85475149  0.57549194  0.74184347    -0.19800
C1634       C  0.86473728  0.57894050  0.71455062    -0.06370
C1635       C  0.83731103  0.57500345  0.69422414     0.14500
C1636       C  0.80091391  0.56637480  0.70183571    -0.19860
C1637       C  0.79161527  0.56098830  0.72914360    -0.06380
C1638       C  0.81925886  0.56533581  0.74942539     0.14490
C1639       C  0.81435207  0.55687132  0.77899201    -0.23210
H1640       H  0.87595819  0.57786810  0.75739544     0.15770
H1641       H  0.77985788  0.56306818  0.68634995     0.15800
C1642       C  0.84610797  0.58012547  0.66461964    -0.23160
H1643       H  0.81567054  0.57796841  0.79169805     0.06020
H1644       H  0.83733958  0.54117105  0.78515271     0.09240
H1645       H  0.78831550  0.54448830  0.78365029     0.09240
H1646       H  0.86652272  0.56273818  0.65729908     0.09220
H1647       H  0.85771872  0.60358428  0.66175592     0.09220
H1648       H  0.82078098  0.57809214  0.65180466     0.06000
loop_ 
_geom_bond_atom_site_label_1 
_geom_bond_atom_site_label_2 
_geom_bond_distance 
_geom_bond_site_symmetry_2 
_ccdc_geom_bond_type 
O1            C4   1.269       .  A
O1           Cd6   2.495       .  S
C2           O11   1.262       .  A
C2            O7   1.268       .  A
C2          C841   1.469       .  S
O3            C9   1.269       .  A
O3           Cd6   2.448   1_455  S
C4           O12   1.264       .  A
C4           C93   1.464       .  S
C5           O10   1.266       .  A
C5            O8   1.260       .  A
C5          C398   1.477       .  S
Cd6          O13   2.459   1_655  S
Cd6          O12   2.416       .  S
Cd6          O11   2.462       .  S
Cd6           O7   2.493       .  S
Cd6          O10   2.475       .  S
Cd6           O8   2.446       .  S
C9           O13   1.268       .  A
C9          C385   1.491       .  S
O14          C17   1.269   1_455  A
O14         Cd19   2.477   1_455  S
C15          O24   1.263       .  A
C15          O20   1.269       .  A
C15          C80   1.465       .  S
O16          C22   1.271       .  A
O16         Cd19   2.502       .  S
C17          O25   1.265       .  A
C17         C826   1.469       .  S
C18          O23   1.269   1_455  A
C18          O21   1.267       .  A
C18         C353   1.480       .  S
Cd19         O26   2.423       .  S
Cd19         O25   2.463       .  S
Cd19         O24   2.417       .  S
Cd19         O20   2.500       .  S
Cd19         O23   2.464       .  S
Cd19         O21   2.452   1_655  S
C22          O26   1.261       .  A
C22         C369   1.492       .  S
O27          C30   1.270       .  A
O27        Cd856   2.478       .  S
C28          O37   1.263       .  A
C28          O33   1.272       .  A
C28         C401   1.479       .  S
O29          C35   1.271       .  A
O29         Cd32   2.458       .  S
C30          O38   1.265       .  A
C30         C337   1.470       .  S
C31          O34   1.261       .  A
C31         O860   1.271       .  A
C31         C366   1.486       .  S
Cd32         O39   2.433       .  S
Cd32         O37   2.411       .  S
Cd32         O33   2.484       .  S
Cd32         O36   2.490       .  S
Cd32        O851   2.478   1_545  S
Cd32        O862   2.422   1_545  S
Cd32        O858   2.415   1_545  S
O34        Cd856   2.415       .  S
C35          O39   1.269       .  A
C35         C318   1.482       .  S
O36         C855   1.271   1_545  A
O38        Cd856   2.422       .  S
O40          C43   1.268       .  A
O40         Cd45   2.479       .  S
C41          O50   1.263       .  A
C41          O46   1.268       .  A
C41         C119   1.464       .  S
O42          C48   1.269       .  A
O42         Cd45   2.503       .  S
C43          O51   1.264       .  A
C43          C56   1.466       .  S
C44          O49   1.269       .  A
C44          O47   1.267       .  A
C44         C321   1.479       .  S
Cd45         O52   2.424       .  S
Cd45         O51   2.454       .  S
Cd45         O50   2.425       .  S
Cd45         O46   2.496       .  S
Cd45         O49   2.459       .  S
Cd45         O47   2.452       .  S
C48          O52   1.260       .  A
C48         C305   1.488       .  S
O53          C56   1.268       .  A
O53         Cd58   2.476       .  S
C54          O63   1.264       .  A
C54          O59   1.269       .  A
C54         C132   1.463       .  S
O55          C61   1.269       .  A
O55         Cd58   2.501       .  S
C56          O64   1.264       .  A
C57          O62   1.271       .  A
C57          O60   1.267       .  A
C57         C334   1.493       .  S
Cd58         O65   2.413       .  S
Cd58         O64   2.457       .  S
Cd58         O63   2.419       .  S
Cd58         O59   2.492       .  S
Cd58         O62   2.457       .  S
Cd58         O60   2.452       .  S
C61          O65   1.262       .  A
C61         C286   1.490       .  S
O66          C69   1.273       .  A
O66         Cd71   2.488       .  S
C67          O76   1.266       .  A
C67          O72   1.271       .  A
C67         C350   1.482       .  S
O68          C74   1.272       .  A
O68         Cd71   2.467       .  S
C69          O77   1.261       .  A
C69         C302   1.492       .  S
C70          O75   1.270       .  A
C70          O73   1.266       .  A
C70         C382   1.473       .  S
Cd71         O78   2.413       .  S
Cd71         O77   2.411       .  S
Cd71         O76   2.429       .  S
Cd71         O72   2.475       .  S
Cd71         O75   2.469       .  S
Cd71         O73   2.429       .  S
C74          O78   1.265       .  A
C74         C289   1.483       .  S
O79          C82   1.268       .  A
O79         Cd84   2.484   1_655  S
C80          O89   1.263   1_655  A
C80          O85   1.269       .  A
O81          C87   1.268       .  A
O81         Cd84   2.490       .  S
C82          O90   1.263       .  A
C82        C1331   1.467       .  S
C83          O88   1.269       .  A
C83          O86   1.267       .  A
C83         C254   1.480       .  S
Cd84         O91   2.436       .  S
Cd84         O90   2.454   1_455  S
Cd84         O89   2.420       .  S
Cd84         O85   2.499   1_455  S
Cd84         O88   2.459   1_455  S
Cd84         O86   2.450   1_455  S
C87          O91   1.261       .  A
C87         C270   1.481       .  S
O92          C95   1.269       .  A
O92         Cd97   2.473       .  S
C93         O102   1.263   1_655  A
C93          O98   1.269       .  A
O94         C100   1.267       .  A
O94         Cd97   2.476   1_455  S
C95         O103   1.264       .  A
C95        C1318   1.467   1_554  S
C96         O101   1.267       .  A
C96          O99   1.269       .  A
C96         C225   1.482       .  S
Cd97        O104   2.419   1_655  S
Cd97        O103   2.456       .  S
Cd97        O102   2.418   1_655  S
Cd97         O98   2.498       .  S
Cd97        O101   2.445       .  S
Cd97         O99   2.458       .  S
C100        O104   1.261       .  A
C100        C241   1.463       .  S
O105        C108   1.272       .  A
O105       Cd522   2.467       .  S
C106        O527   1.264       .  A
C106        O935   1.276       .  A
C106        C273   1.491       .  S
O107        C113   1.272       .  A
O107       Cd934   2.453       .  S
C108        O528   1.267       .  A
C108        C193   1.474       .  S
C109        O114   1.274       .  A
C109        O112   1.265       .  A
C109        C238   1.470       .  S
Cd110       O116   2.411       .  S
Cd110       O114   2.479       .  S
Cd110       O112   2.372       .  S
Cd110       O517   2.467   1_554  S
Cd110       O931   2.453   1_545  S
Cd110      O1353   2.412   1_544  S
Cd110       O939   2.391   1_545  S
Cd110       O523   2.476   1_544  S
O111        C930   1.276       .  A
O111       Cd522   2.476   1_565  S
C113        O529   1.268   1_554  A
C113        C206   1.466       .  S
O115        C518   1.264   1_554  A
O115       Cd934   2.391       .  S
O116        C520   1.267   1_554  A
O117        C525   1.268       .  A
O117      Cd1346   2.412       .  S
O118        C121   1.268       .  A
O118       Cd123   2.481       .  S
C119        O128   1.264       .  A
C119        O124   1.269       .  A
O120        C126   1.266       .  A
O120       Cd123   2.478       .  S
C121        O129   1.262       .  A
C121        C546   1.466       .  S
C122        O127   1.267       .  A
C122        O125   1.269       .  A
C122        C190   1.487       .  S
Cd123       O130   2.441       .  S
Cd123       O129   2.457       .  S
Cd123       O128   2.421       .  S
Cd123       O124   2.494       .  S
Cd123       O127   2.436       .  S
Cd123       O125   2.464       .  S
C126        O130   1.262       .  A
C126        C174   1.481       .  S
O131        C134   1.269       .  A
O131       Cd136   2.481       .  S
C132        O141   1.264       .  A
C132        O137   1.269       .  A
O133        C139   1.266       .  A
O133       Cd136   2.468       .  S
C134        O142   1.262       .  A
C134        C533   1.466   1_554  S
C135        O140   1.267       .  A
C135        O138   1.269       .  A
C135        C209   1.489       .  S
Cd136       O143   2.439       .  S
Cd136       O142   2.450       .  S
Cd136       O141   2.420       .  S
Cd136       O137   2.491       .  S
Cd136       O140   2.441       .  S
Cd136       O138   2.455       .  S
C139        O143   1.261       .  A
C139        C158   1.465       .  S
O144        C147   1.274       .  A
O144       Cd149   2.483       .  S
C145        O150   1.272       .  A
C145        O566   1.266   1_554  A
C145        C222   1.473       .  S
O146        C152   1.274       .  A
O146       Cd561   2.474       .  S
C147        O155   1.265       .  A
C147        C161   1.475       .  S
C148        O153   1.271       .  A
C148        O563   1.267       .  A
C148        C257   1.479       .  S
Cd149       O156   2.393       .  S
Cd149       O155   2.377       .  S
Cd149       O150   2.472       .  S
Cd149       O151   2.420       .  S
Cd149       O558   2.474   1_554  S
Cd149       O566   2.409   1_554  S
Cd149       O565   2.470   1_554  S
O151        C560   1.267   1_554  A
C152        O568   1.266       .  A
C152        C177   1.491       .  S
O153       Cd561   2.470       .  S
O154        C557   1.266       .  A
O154       Cd561   2.409       .  S
O156        C564   1.266   1_554  A
C157        C158   1.404       .  A
C157        C162   1.409       .  A
C157        H164   1.084       .  S
C158        C159   1.408       .  A
C159        C160   1.396       .  A
C159        C166   1.510   1_554  S
C160        C161   1.406       .  A
C160        H165   1.085   1_554  S
C161        C162   1.412       .  A
C162        C163   1.505       .  S
C163        H167   1.111       .  S
C163        H168   1.110       .  S
C163        H169   1.109       .  S
C166        H171   1.111   1_556  S
C166        H582   1.110       .  S
C166        H584   1.111       .  S
H170        C578   1.110       .  S
H172        C578   1.111       .  S
C173        C174   1.405       .  A
C173        C178   1.405       .  A
C173        H180   1.084       .  S
C174        C175   1.412       .  A
C175        C176   1.402       .  A
C175        C594   1.509       .  S
C176        C177   1.410       .  A
C176        H593   1.084       .  S
C177        C178   1.417       .  A
C178        C179   1.507       .  S
C179        H183   1.111       .  S
C179        H184   1.110       .  S
C179        H185   1.109       .  S
H181        C588   1.084   1_554  S
C182        C587   1.509   1_554  S
C182        H186   1.109       .  S
C182        H187   1.111       .  S
C182        H188   1.111       .  S
C189        C190   1.408       .  A
C189        C194   1.405       .  A
C189        H196   1.083       .  S
C190        C191   1.419       .  A
C191        C192   1.402       .  A
C191        C198   1.509       .  S
C192        C193   1.400       .  A
C192        H609   1.084       .  S
C193        C194   1.410       .  A
C194        C195   1.507       .  S
C195        H199   1.111       .  S
C195        H200   1.111       .  S
C195        H201   1.110       .  S
H197        C604   1.084   1_554  S
C198        H203   1.110       .  S
C198        H614   1.110       .  S
C198        H616   1.111       .  S
H202        C610   1.110       .  S
H204        C610   1.111       .  S
C205        C206   1.398       .  A
C205        C210   1.405       .  A
C205        H212   1.084       .  S
C206        C207   1.407       .  A
C207        C208   1.402       .  A
C207        C214   1.508       .  S
C208        C209   1.409       .  A
C208        H213   1.083       .  S
C209        C210   1.422       .  A
C210        C211   1.508       .  S
C211        H215   1.111       .  S
C211        H216   1.110       .  S
C211        H217   1.110       .  S
C214        H218   1.110       .  S
C214        H219   1.111       .  S
C214        H220   1.110       .  S
C221        C222   1.400       .  A
C221        C226   1.405       .  A
C221        H228   1.083       .  S
C222        C223   1.412       .  A
C223        C224   1.402       .  A
C223        C230   1.508       .  S
C224        C225   1.404       .  A
C224        H229   1.083       .  S
C225        C226   1.418       .  A
C226        C227   1.508       .  S
C227        H231   1.110       .  S
C227        H232   1.110       .  S
C227        H233   1.111       .  S
C230        H235   1.111       .  S
C230        H236   1.110       .  S
C230        H646   1.109   1_554  S
H234        C642   1.109       .  S
C237        C238   1.404       .  A
C237        C242   1.394       .  A
C237        H244   1.085   1_554  S
C238        C239   1.410       .  A
C239        C240   1.409       .  A
C239        C246   1.504       .  S
C240        C241   1.404       .  A
C240        H245   1.084       .  S
C241        C242   1.408       .  A
C242        C243   1.510       .  S
C243        H247   1.111   1_554  S
C243        H248   1.110   1_554  S
C243        H249   1.111       .  S
C246        H250   1.110       .  S
C246        H251   1.110       .  S
C246        H252   1.111       .  S
C253        C254   1.404       .  A
C253        C258   1.405       .  A
C253        H260   1.084       .  S
C254        C255   1.415       .  A
C255        C256   1.402       .  A
C255        C674   1.508       .  S
C256        C257   1.403       .  A
C256        H673   1.085       .  S
C257        C258   1.414       .  A
C258        C259   1.507       .  S
C259        H263   1.111       .  S
C259        H264   1.110       .  S
C259        H265   1.110       .  S
H261        C668   1.085   1_554  S
C262        C667   1.508       .  S
C262        H267   1.110   1_556  S
C262        H268   1.111   1_556  S
C262        H678   1.109       .  S
H266        C674   1.109       .  S
C269        C270   1.399       .  A
C269        C274   1.403       .  A
C269        H688   1.085       .  S
C270        C271   1.416       .  A
C271        C272   1.405       .  A
C271        C278   1.508       .  S
C272        C273   1.405       .  A
C272        H277   1.084       .  S
C273        C274   1.425       .  A
C274       C1511   1.510       .  S
C275       C1510   1.510   1_554  S
C275        H279   1.111       .  S
C275        H280   1.110       .  S
C275       H1105   1.110       .  S
H276        C681   1.085   1_554  S
C278        H282   1.109       .  S
C278        H283   1.110       .  S
C278        H284   1.111       .  S
H281       C1099   1.110       .  S
C285        C286   1.408       .  A
C285        C290   1.402       .  A
C285        H292   1.084       .  S
C286        C287   1.416       .  A
C287        C288   1.406       .  A
C287        C294   1.507       .  S
C288        C289   1.406       .  A
C288        H293   1.084       .  S
C289        C290   1.414       .  A
C290        C291   1.509       .  S
C291        H295   1.111       .  S
C291        H296   1.110       .  S
C291        H297   1.110       .  S
C294        H298   1.110       .  S
C294        H299   1.110       .  S
C294        H300   1.111       .  S
C301        C302   1.404       .  A
C301        C306   1.404       .  A
C301        H308   1.083       .  S
C302        C303   1.423       .  A
C303        C304   1.405       .  A
C303        C310   1.509       .  S
C304        C305   1.402       .  A
C304        H309   1.084       .  S
C305        C306   1.420       .  A
C306        C307   1.509       .  S
C307        H311   1.111       .  S
C307        H312   1.109       .  S
C307        H313   1.110       .  S
C310        H314   1.109       .  S
C310        H315   1.110       .  S
C310        H316   1.111       .  S
C317        C318   1.405       .  A
C317        C322   1.404       .  A
C317        H324   1.085       .  S
C318        C319   1.415       .  A
C319        C320   1.405       .  A
C319        C326   1.507       .  S
C320        C321   1.403       .  A
C320        H325   1.084       .  S
C321        C322   1.414       .  A
C322        C323   1.508       .  S
C323        H327   1.111       .  S
C323        H328   1.109       .  S
C323        H329   1.111       .  S
C326        H330   1.110       .  S
C326        H331   1.110       .  S
C326        H332   1.111       .  S
C333        C334   1.409       .  A
C333        C338   1.403       .  A
C333        H340   1.084       .  S
C334        C335   1.424       .  A
C335        C336   1.406       .  A
C335        C342   1.508       .  S
C336        C337   1.398       .  A
C336        H341   1.085       .  S
C337        C338   1.408       .  A
C338        C339   1.507       .  S
C339        H343   1.111       .  S
C339        H344   1.110       .  S
C339        H345   1.110       .  S
C342        H346   1.110       .  S
C342        H347   1.110       .  S
C342        H348   1.111       .  S
C349        C350   1.404       .  A
C349        C354   1.406       .  A
C349        H356   1.083       .  S
C350        C351   1.416       .  A
C351        C352   1.404       .  A
C351        C358   1.508       .  S
C352        C353   1.403       .  A
C352        H357   1.083       .  S
C353        C354   1.414       .  A
C354        C355   1.507       .  S
C355        H359   1.110       .  S
C355        H360   1.110       .  S
C355        H361   1.111       .  S
C358        H362   1.109       .  S
C358        H363   1.111       .  S
C358        H364   1.110       .  S
C365       C1190   1.402       .  A
C365       C1194   1.404       .  A
C365        H372   1.084   1_565  S
C366        C367   1.418       .  A
C366       C1189   1.402       .  A
C367        C368   1.405       .  A
C367        C374   1.508       .  S
C368        C369   1.404       .  A
C368        H373   1.083       .  S
C369        C370   1.422       .  A
C370       C1189   1.404       .  A
C370       C1195   1.509       .  S
C371       C1194   1.509   1_545  S
C371        H375   1.111       .  S
C371        H376   1.110       .  S
C371        H377   1.110   1_545  S
C374        H378   1.108       .  S
C374        H379   1.111       .  S
C374        H380   1.111       .  S
C381        C382   1.400       .  A
C381        C386   1.406       .  A
C381        H388   1.085       .  S
C382        C383   1.410       .  A
C383        C384   1.402       .  A
C383        C390   1.508       .  S
C384        C385   1.408       .  A
C384        H389   1.084       .  S
C385        C386   1.422       .  A
C386        C387   1.508       .  S
C387        H391   1.111       .  S
C387        H392   1.110       .  S
C387        H393   1.110       .  S
C390        H394   1.110       .  S
C390        H395   1.109       .  S
C390        H396   1.111       .  S
C397        C398   1.398       .  A
C397        C402   1.397       .  A
C397        H404   1.086       .  S
C398        C399   1.416       .  A
C399        C400   1.408       .  A
C399        C406   1.507       .  S
C400        C401   1.404       .  A
C400        H405   1.084       .  S
C401        C402   1.422       .  A
C402        C403   1.511       .  S
C403        H407   1.110       .  S
C403        H408   1.111       .  S
C403        H409   1.102       .  S
C406        H410   1.109       .  S
C406        H411   1.110       .  S
C406        H412   1.111       .  S
O413        C416   1.269       .  A
O413       Cd418   2.495       .  S
C414        O423   1.262       .  A
C414        O419   1.268       .  A
C414       C1253   1.469       .  S
O415        C421   1.269       .  A
O415       Cd418   2.448   1_455  S
C416        O424   1.264       .  A
C416        C505   1.464       .  S
C417        O422   1.266       .  A
C417        O420   1.260       .  A
C417        C810   1.477       .  S
Cd418       O425   2.459   1_655  S
Cd418       O424   2.416       .  S
Cd418       O423   2.462       .  S
Cd418       O419   2.493       .  S
Cd418       O422   2.475       .  S
Cd418       O420   2.446       .  S
C421        O425   1.268       .  A
C421        C797   1.491       .  S
O426        C429   1.269   1_455  A
O426       Cd431   2.477   1_455  S
C427        O436   1.263       .  A
C427        O432   1.269       .  A
C427        C492   1.465       .  S
O428        C434   1.271       .  A
O428       Cd431   2.502       .  S
C429        O437   1.265       .  A
C429       C1238   1.469       .  S
C430        O435   1.269   1_455  A
C430        O433   1.267       .  A
C430        C765   1.480       .  S
Cd431       O438   2.423       .  S
Cd431       O437   2.463       .  S
Cd431       O436   2.417       .  S
Cd431       O432   2.500       .  S
Cd431       O435   2.464       .  S
Cd431       O433   2.452   1_655  S
C434        O438   1.261       .  A
C434        C781   1.492       .  S
O439        C442   1.270       .  A
O439      Cd1268   2.478       .  S
C440        O449   1.263       .  A
C440        O445   1.272       .  A
C440        C813   1.479       .  S
O441        C447   1.271       .  A
O441       Cd444   2.458       .  S
C442        O450   1.265       .  A
C442        C749   1.470       .  S
C443       O1272   1.271       .  A
C443        O446   1.261       .  A
C443        C778   1.486       .  S
Cd444      O1263   2.478   1_545  S
Cd444       O451   2.433       .  S
Cd444      O1274   2.422   1_545  S
Cd444       O449   2.411       .  S
Cd444       O445   2.484       .  S
Cd444       O448   2.490       .  S
Cd444      O1270   2.415   1_545  S
O446      Cd1268   2.415       .  S
C447        O451   1.269       .  A
C447        C730   1.482       .  S
O448       C1267   1.271   1_545  A
O450      Cd1268   2.422       .  S
O452        C455   1.268       .  A
O452       Cd457   2.479       .  S
C453        O462   1.263       .  A
C453        O458   1.268       .  A
C453        C531   1.464       .  S
O454        C460   1.269       .  A
O454       Cd457   2.503       .  S
C455        O463   1.264       .  A
C455        C468   1.466       .  S
C456        O461   1.269       .  A
C456        O459   1.267       .  A
C456        C733   1.479       .  S
Cd457       O464   2.424       .  S
Cd457       O463   2.454       .  S
Cd457       O462   2.425       .  S
Cd457       O458   2.496       .  S
Cd457       O461   2.459       .  S
Cd457       O459   2.452       .  S
C460        O464   1.260       .  A
C460        C717   1.488       .  S
O465        C468   1.268       .  A
O465       Cd470   2.476       .  S
C466        O475   1.264       .  A
C466        O471   1.269       .  A
C466        C544   1.463       .  S
O467        C473   1.269       .  A
O467       Cd470   2.501       .  S
C468        O476   1.264       .  A
C469        O474   1.271       .  A
C469        O472   1.267       .  A
C469        C746   1.493       .  S
Cd470       O477   2.413       .  S
Cd470       O476   2.457       .  S
Cd470       O475   2.419       .  S
Cd470       O471   2.492       .  S
Cd470       O474   2.457       .  S
Cd470       O472   2.452       .  S
C473        O477   1.262       .  A
C473        C698   1.490       .  S
O478        C481   1.273       .  A
O478       Cd483   2.488       .  S
C479        O488   1.266       .  A
C479        O484   1.271       .  A
C479        C762   1.482       .  S
O480        C486   1.272       .  A
O480       Cd483   2.467       .  S
C481        O489   1.261       .  A
C481        C714   1.492       .  S
C482        O487   1.270       .  A
C482        O485   1.266       .  A
C482        C794   1.473       .  S
Cd483       O490   2.413       .  S
Cd483       O489   2.411       .  S
Cd483       O488   2.429       .  S
Cd483       O484   2.475       .  S
Cd483       O487   2.469       .  S
Cd483       O485   2.429       .  S
C486        O490   1.265       .  A
C486        C701   1.483       .  S
O491        C494   1.268       .  A
O491       Cd496   2.484   1_655  S
C492        O501   1.263   1_655  A
C492        O497   1.269       .  A
O493        C499   1.268       .  A
O493       Cd496   2.490       .  S
C494        O502   1.263       .  A
C494        C919   1.467   1_556  S
C495        O500   1.269       .  A
C495        O498   1.267       .  A
C495        C666   1.480       .  S
Cd496       O503   2.436       .  S
Cd496       O502   2.454   1_455  S
Cd496       O501   2.420       .  S
Cd496       O497   2.499   1_455  S
Cd496       O500   2.459   1_455  S
Cd496       O498   2.450   1_455  S
C499        O503   1.261       .  A
C499        C682   1.481       .  S
O504        C507   1.269       .  A
O504       Cd509   2.473       .  S
C505        O514   1.263   1_655  A
C505        O510   1.269       .  A
O506        C512   1.267       .  A
O506       Cd509   2.476   1_455  S
C507        O515   1.264       .  A
C507        C906   1.467       .  S
C508        O513   1.267       .  A
C508        O511   1.269       .  A
C508        C637   1.482       .  S
Cd509       O516   2.419   1_655  S
Cd509       O515   2.456       .  S
Cd509       O514   2.418   1_655  S
Cd509       O510   2.498       .  S
Cd509       O513   2.445       .  S
Cd509       O511   2.458       .  S
C512        O516   1.261       .  A
C512        C653   1.463       .  S
O517        C520   1.272       .  A
C518       O1347   1.276       .  A
C518        C685   1.491       .  S
O519        C525   1.272       .  A
O519      Cd1346   2.453       .  S
C520        C605   1.474       .  S
C521        O526   1.274       .  A
C521        O524   1.265       .  A
C521        C650   1.470       .  S
Cd522      O1343   2.453   1_545  S
Cd522       O941   2.412   1_545  S
Cd522       O528   2.411       .  S
Cd522      O1351   2.391   1_545  S
Cd522       O526   2.479       .  S
Cd522       O524   2.372       .  S
O523       C1342   1.276       .  A
C525        C618   1.466       .  S
O527      Cd1346   2.391       .  S
O529       Cd934   2.412   1_556  S
O530        C533   1.268       .  A
O530       Cd535   2.481       .  S
C531        O540   1.264       .  A
C531        O536   1.269       .  A
O532        C538   1.266       .  A
O532       Cd535   2.478       .  S
C533        O541   1.262   1_556  A
C534        O539   1.267       .  A
C534        O537   1.269       .  A
C534        C602   1.487       .  S
Cd535       O542   2.441       .  S
Cd535       O541   2.457   1_556  S
Cd535       O540   2.421       .  S
Cd535       O536   2.494       .  S
Cd535       O539   2.436       .  S
Cd535       O537   2.464       .  S
C538        O542   1.262       .  A
C538        C586   1.481       .  S
O543        C546   1.269       .  A
O543       Cd548   2.481       .  S
C544        O553   1.264       .  A
C544        O549   1.269       .  A
O545        C551   1.266       .  A
O545       Cd548   2.468       .  S
C546        O554   1.262       .  A
C547        O552   1.267       .  A
C547        O550   1.269       .  A
C547        C621   1.489       .  S
Cd548       O555   2.439       .  S
Cd548       O554   2.450       .  S
Cd548       O553   2.420       .  S
Cd548       O549   2.491       .  S
Cd548       O552   2.441       .  S
Cd548       O550   2.455       .  S
C551        O555   1.261       .  A
C551        C570   1.465       .  S
O556        C559   1.274       .  A
O556       Cd561   2.483       .  S
C557        O562   1.272       .  A
C557        C634   1.473       .  S
O558        C564   1.274       .  A
C559        O567   1.265       .  A
C559        C573   1.475       .  S
C560        O565   1.271       .  A
C560        C669   1.479       .  S
Cd561       O568   2.393       .  S
Cd561       O567   2.377       .  S
Cd561       O562   2.472       .  S
Cd561       O563   2.420       .  S
C564        C589   1.491       .  S
C569        C570   1.404       .  A
C569        C574   1.409       .  A
C569        H576   1.084       .  S
C570        C571   1.408       .  A
C571        C572   1.396       .  A
C571        C578   1.510       .  S
C572        C573   1.406       .  A
C572        H577   1.085       .  S
C573        C574   1.412       .  A
C574        C575   1.505       .  S
C575        H579   1.111       .  S
C575        H580   1.110       .  S
C575        H581   1.109       .  S
C578        H583   1.111       .  S
C585        C586   1.405       .  A
C585        C590   1.405       .  A
C585        H592   1.084       .  S
C586        C587   1.412       .  A
C587        C588   1.402       .  A
C588        C589   1.410       .  A
C589        C590   1.417       .  A
C590        C591   1.507       .  S
C591        H595   1.111       .  S
C591        H596   1.110       .  S
C591        H597   1.109       .  S
C594        H598   1.109       .  S
C594        H599   1.111       .  S
C594        H600   1.111       .  S
C601        C602   1.408       .  A
C601        C606   1.405       .  A
C601        H608   1.083       .  S
C602        C603   1.419       .  A
C603        C604   1.402       .  A
C603        C610   1.509   1_556  S
C604        C605   1.400       .  A
C605        C606   1.410       .  A
C606        C607   1.507       .  S
C607        H611   1.111       .  S
C607        H612   1.111       .  S
C607        H613   1.110       .  S
C610        H615   1.110   1_554  S
C617        C618   1.398       .  A
C617        C622   1.405       .  A
C617        H624   1.084       .  S
C618        C619   1.407       .  A
C619        C620   1.402       .  A
C619        C626   1.508       .  S
C620        C621   1.409       .  A
C620        H625   1.083       .  S
C621        C622   1.422       .  A
C622        C623   1.508       .  S
C623        H627   1.111       .  S
C623        H628   1.110       .  S
C623        H629   1.110       .  S
C626        H630   1.110       .  S
C626        H631   1.111       .  S
C626        H632   1.110       .  S
C633        C634   1.400       .  A
C633        C638   1.405       .  A
C633        H640   1.083       .  S
C634        C635   1.412       .  A
C635        C636   1.402       .  A
C635        C642   1.508       .  S
C636        C637   1.404       .  A
C636        H641   1.083       .  S
C637        C638   1.418       .  A
C638        C639   1.508       .  S
C639        H643   1.110       .  S
C639        H644   1.110       .  S
C639        H645   1.111       .  S
C642        H647   1.111       .  S
C642        H648   1.110       .  S
C649        C650   1.404       .  A
C649        C654   1.394       .  A
C649        H656   1.085       .  S
C650        C651   1.410       .  A
C651        C652   1.409       .  A
C651        C658   1.504       .  S
C652        C653   1.404       .  A
C652        H657   1.084       .  S
C653        C654   1.408       .  A
C654        C655   1.510       .  S
C655        H659   1.111       .  S
C655        H660   1.110       .  S
C655        H661   1.111       .  S
C658        H662   1.110       .  S
C658        H663   1.110       .  S
C658        H664   1.111       .  S
C665        C666   1.404       .  A
C665        C670   1.405       .  A
C665        H672   1.084       .  S
C666        C667   1.415       .  A
C667        C668   1.402       .  A
C668        C669   1.403       .  A
C669        C670   1.414       .  A
C670        C671   1.507       .  S
C671        H675   1.111       .  S
C671        H676   1.110       .  S
C671        H677   1.110       .  S
C674        H679   1.110       .  S
C674        H680   1.111       .  S
C681        C682   1.399       .  A
C681        C686   1.403       .  A
C682        C683   1.416       .  A
C683        C684   1.405       .  A
C683        C690   1.508       .  S
C684        C685   1.405       .  A
C684        H689   1.084       .  S
C685        C686   1.425       .  A
C686       C1099   1.510   1_556  S
C687       C1098   1.510       .  S
C687        H691   1.111       .  S
C687        H692   1.110       .  S
C687       H1517   1.110       .  S
C690        H694   1.109       .  S
C690        H695   1.110       .  S
C690        H696   1.111       .  S
H693       C1511   1.110       .  S
C697        C698   1.408       .  A
C697        C702   1.402       .  A
C697        H704   1.084       .  S
C698        C699   1.416       .  A
C699        C700   1.406       .  A
C699        C706   1.507       .  S
C700        C701   1.406       .  A
C700        H705   1.084       .  S
C701        C702   1.414       .  A
C702        C703   1.509       .  S
C703        H707   1.111       .  S
C703        H708   1.110       .  S
C703        H709   1.110       .  S
C706        H710   1.110       .  S
C706        H711   1.110       .  S
C706        H712   1.111       .  S
C713        C714   1.404       .  A
C713        C718   1.404       .  A
C713        H720   1.083       .  S
C714        C715   1.423       .  A
C715        C716   1.405       .  A
C715        C722   1.509       .  S
C716        C717   1.402       .  A
C716        H721   1.084       .  S
C717        C718   1.420       .  A
C718        C719   1.509       .  S
C719        H723   1.111       .  S
C719        H724   1.109       .  S
C719        H725   1.110       .  S
C722        H726   1.109       .  S
C722        H727   1.110       .  S
C722        H728   1.111       .  S
C729        C730   1.405       .  A
C729        C734   1.404       .  A
C729        H736   1.085       .  S
C730        C731   1.415       .  A
C731        C732   1.405       .  A
C731        C738   1.507       .  S
C732        C733   1.403       .  A
C732        H737   1.084       .  S
C733        C734   1.414       .  A
C734        C735   1.508       .  S
C735        H739   1.111       .  S
C735        H740   1.109       .  S
C735        H741   1.111       .  S
C738        H742   1.110       .  S
C738        H743   1.110       .  S
C738        H744   1.111       .  S
C745        C746   1.409       .  A
C745        C750   1.403       .  A
C745        H752   1.084       .  S
C746        C747   1.424       .  A
C747        C748   1.406       .  A
C747        C754   1.508       .  S
C748        C749   1.398       .  A
C748        H753   1.085       .  S
C749        C750   1.408       .  A
C750        C751   1.507       .  S
C751        H755   1.111       .  S
C751        H756   1.110       .  S
C751        H757   1.110       .  S
C754        H758   1.110       .  S
C754        H759   1.110       .  S
C754        H760   1.111       .  S
C761        C762   1.404       .  A
C761        C766   1.406       .  A
C761        H768   1.083       .  S
C762        C763   1.416       .  A
C763        C764   1.404       .  A
C763        C770   1.508       .  S
C764        C765   1.403       .  A
C764        H769   1.083       .  S
C765        C766   1.414       .  A
C766        C767   1.507       .  S
C767        H771   1.110       .  S
C767        H772   1.110       .  S
C767        H773   1.111       .  S
C770        H774   1.109       .  S
C770        H775   1.111       .  S
C770        H776   1.110       .  S
C777       C1602   1.402       .  A
C777       C1606   1.404       .  A
C777        H784   1.084   1_565  S
C778       C1601   1.402       .  A
C778        C779   1.418       .  A
C779        C780   1.405       .  A
C779        C786   1.508       .  S
C780        C781   1.404       .  A
C780        H785   1.083       .  S
C781        C782   1.422       .  A
C782       C1601   1.404       .  A
C782       C1607   1.509       .  S
C783       C1606   1.509   1_545  S
C783        H787   1.111       .  S
C783        H788   1.110       .  S
C783        H789   1.110   1_545  S
C786        H790   1.108       .  S
C786        H791   1.111       .  S
C786        H792   1.111       .  S
C793        C794   1.400       .  A
C793        C798   1.406       .  A
C793        H800   1.085       .  S
C794        C795   1.410       .  A
C795        C796   1.402       .  A
C795        C802   1.508       .  S
C796        C797   1.408       .  A
C796        H801   1.084       .  S
C797        C798   1.422       .  A
C798        C799   1.508       .  S
C799        H803   1.111       .  S
C799        H804   1.110       .  S
C799        H805   1.110       .  S
C802        H806   1.110       .  S
C802        H807   1.109       .  S
C802        H808   1.111       .  S
C809        C810   1.398       .  A
C809        C814   1.397       .  A
C809        H816   1.086       .  S
C810        C811   1.416       .  A
C811        C812   1.408       .  A
C811        C818   1.507       .  S
C812        C813   1.404       .  A
C812        H817   1.084       .  S
C813        C814   1.422       .  A
C814        C815   1.511       .  S
C815        H819   1.110       .  S
C815        H820   1.111       .  S
C815        H821   1.102       .  S
C818        H822   1.109       .  S
C818        H823   1.110       .  S
C818        H824   1.111       .  S
O825        C828   1.269       .  A
O825       Cd830   2.495       .  S
C826        O835   1.262       .  A
C826        O831   1.268       .  A
O827        C833   1.269       .  A
O827       Cd830   2.448   1_455  S
C828        O836   1.264       .  A
C828        C917   1.464       .  S
C829        O834   1.266       .  A
C829        O832   1.260       .  A
C829       C1222   1.477       .  S
Cd830       O837   2.459   1_655  S
Cd830       O836   2.416       .  S
Cd830       O835   2.462       .  S
Cd830       O831   2.493       .  S
Cd830       O834   2.475       .  S
Cd830       O832   2.446       .  S
C833        O837   1.268       .  A
C833       C1209   1.491       .  S
O838        C841   1.269   1_455  A
O838       Cd843   2.477   1_445  S
C839        O848   1.263       .  A
C839        O844   1.269       .  A
C839        C904   1.465       .  S
O840        C846   1.271       .  A
O840       Cd843   2.502       .  S
C841        O849   1.265   1_545  A
C842        O847   1.269   1_455  A
C842        O845   1.267       .  A
C842       C1177   1.480       .  S
Cd843       O850   2.423       .  S
Cd843       O849   2.463       .  S
Cd843       O848   2.417       .  S
Cd843       O844   2.500       .  S
Cd843       O847   2.464       .  S
Cd843       O845   2.452   1_655  S
C846        O850   1.261       .  A
C846       C1193   1.492       .  S
O851        C854   1.270       .  A
C852        O861   1.263       .  A
C852        O857   1.272       .  A
C852       C1225   1.479       .  S
O853        C859   1.271       .  A
O853       Cd856   2.458       .  S
C854        O862   1.265       .  A
C854       C1161   1.470       .  S
C855        O858   1.261       .  A
C855       C1190   1.486       .  S
Cd856       O863   2.433       .  S
Cd856       O861   2.411       .  S
Cd856       O857   2.484       .  S
Cd856       O860   2.490       .  S
C859        O863   1.269       .  A
C859       C1142   1.482       .  S
O864        C867   1.268       .  A
O864       Cd869   2.479       .  S
C865        O874   1.263       .  A
C865        O870   1.268       .  A
C865        C943   1.464       .  S
O866        C872   1.269       .  A
O866       Cd869   2.503       .  S
C867        O875   1.264       .  A
C867        C880   1.466       .  S
C868        O873   1.269       .  A
C868        O871   1.267       .  A
C868       C1145   1.479       .  S
Cd869       O876   2.424       .  S
Cd869       O875   2.454       .  S
Cd869       O874   2.425       .  S
Cd869       O870   2.496       .  S
Cd869       O873   2.459       .  S
Cd869       O871   2.452       .  S
C872        O876   1.260       .  A
C872       C1129   1.488       .  S
O877        C880   1.268       .  A
O877       Cd882   2.476       .  S
C878        O887   1.264       .  A
C878        O883   1.269       .  A
C878        C956   1.463       .  S
O879        C885   1.269       .  A
O879       Cd882   2.501       .  S
C880        O888   1.264       .  A
C881        O886   1.271       .  A
C881        O884   1.267       .  A
C881       C1158   1.493       .  S
Cd882       O889   2.413       .  S
Cd882       O888   2.457       .  S
Cd882       O887   2.419       .  S
Cd882       O883   2.492       .  S
Cd882       O886   2.457       .  S
Cd882       O884   2.452       .  S
C885        O889   1.262       .  A
C885       C1110   1.490       .  S
O890        C893   1.273       .  A
O890       Cd895   2.488       .  S
C891        O900   1.266       .  A
C891        O896   1.271       .  A
C891       C1174   1.482       .  S
O892        C898   1.272       .  A
O892       Cd895   2.467       .  S
C893        O901   1.261       .  A
C893       C1126   1.492       .  S
C894        O899   1.270       .  A
C894        O897   1.266       .  A
C894       C1206   1.473       .  S
Cd895       O902   2.413       .  S
Cd895       O901   2.411       .  S
Cd895       O900   2.429       .  S
Cd895       O896   2.475       .  S
Cd895       O899   2.469       .  S
Cd895       O897   2.429       .  S
C898        O902   1.265       .  A
C898       C1113   1.483       .  S
O903        C906   1.268       .  A
O903       Cd908   2.484   1_645  S
C904        O913   1.263   1_655  A
C904        O909   1.269       .  A
O905        C911   1.268       .  A
O905       Cd908   2.490       .  S
C906        O914   1.263   1_545  A
C907        O912   1.269       .  A
C907        O910   1.267       .  A
C907       C1078   1.480       .  S
Cd908       O915   2.436       .  S
Cd908       O914   2.454   1_455  S
Cd908       O913   2.420       .  S
Cd908       O909   2.499   1_455  S
Cd908       O912   2.459   1_455  S
Cd908       O910   2.450   1_455  S
C911        O915   1.261       .  A
C911       C1094   1.481       .  S
O916        C919   1.269       .  A
O916       Cd921   2.473       .  S
C917        O926   1.263   1_655  A
C917        O922   1.269       .  A
O918        C924   1.267       .  A
O918       Cd921   2.476   1_455  S
C919        O927   1.264       .  A
C920        O925   1.267       .  A
C920        O923   1.269       .  A
C920       C1049   1.482       .  S
Cd921       O928   2.419   1_655  S
Cd921       O927   2.456       .  S
Cd921       O926   2.418   1_655  S
Cd921       O922   2.498       .  S
Cd921       O925   2.445       .  S
Cd921       O923   2.458       .  S
C924        O928   1.261       .  A
C924       C1065   1.463       .  S
O929        C932   1.272       .  A
O929      Cd1346   2.467       .  S
C930       O1351   1.264       .  A
C930       C1097   1.491       .  S
O931        C937   1.272       .  A
C932       O1352   1.267       .  A
C932       C1017   1.474       .  S
C933        O938   1.274       .  A
C933        O936   1.265       .  A
C933       C1062   1.470       .  S
Cd934      O1341   2.467   1_554  S
Cd934       O940   2.411       .  S
Cd934      O1347   2.476   1_554  S
Cd934       O938   2.479       .  S
Cd934       O936   2.372       .  S
O935      Cd1346   2.476       .  S
C937       O1353   1.268   1_554  A
C937       C1030   1.466       .  S
O939       C1342   1.264   1_554  A
O940       C1344   1.267   1_554  A
O941       C1349   1.268       .  A
O942        C945   1.268       .  A
O942       Cd947   2.481       .  S
C943        O952   1.264       .  A
C943        O948   1.269       .  A
O944        C950   1.266       .  A
O944       Cd947   2.478       .  S
C945        O953   1.262       .  A
C945       C1370   1.466       .  S
C946        O951   1.267       .  A
C946        O949   1.269       .  A
C946       C1014   1.487       .  S
Cd947       O954   2.441       .  S
Cd947       O953   2.457       .  S
Cd947       O952   2.421       .  S
Cd947       O948   2.494       .  S
Cd947       O951   2.436       .  S
Cd947       O949   2.464       .  S
C950        O954   1.262       .  A
C950        C998   1.481       .  S
O955        C958   1.269       .  A
O955       Cd960   2.481       .  S
C956        O965   1.264       .  A
C956        O961   1.269       .  A
O957        C963   1.266       .  A
O957       Cd960   2.468       .  S
C958        O966   1.262       .  A
C958       C1357   1.466   1_554  S
C959        O964   1.267       .  A
C959        O962   1.269       .  A
C959       C1033   1.489       .  S
Cd960       O967   2.439       .  S
Cd960       O966   2.450       .  S
Cd960       O965   2.420       .  S
Cd960       O961   2.491       .  S
Cd960       O964   2.441       .  S
Cd960       O962   2.455       .  S
C963        O967   1.261       .  A
C963        C982   1.465       .  S
O968        C971   1.274       .  A
O968       Cd973   2.483       .  S
C969       O1390   1.266   1_554  A
C969        O974   1.272       .  A
C969       C1046   1.473       .  S
O970        C976   1.274       .  A
O970      Cd1385   2.474       .  S
C971        O979   1.265       .  A
C971        C985   1.475       .  S
C972        O977   1.271       .  A
C972       O1387   1.267       .  A
C972       C1081   1.479       .  S
Cd973      O1382   2.474   1_554  S
Cd973       O980   2.393       .  S
Cd973       O979   2.377       .  S
Cd973      O1390   2.409   1_554  S
Cd973       O974   2.472       .  S
Cd973      O1389   2.470   1_554  S
Cd973       O975   2.420       .  S
O975       C1384   1.267   1_554  A
C976       O1392   1.266       .  A
C976       C1001   1.491       .  S
O977      Cd1385   2.470       .  S
O978       C1381   1.266       .  A
O978      Cd1385   2.409       .  S
O980       C1388   1.266   1_554  A
C981        C982   1.404       .  A
C981        C986   1.409       .  A
C981        H988   1.084       .  S
C982        C983   1.408       .  A
C983        C984   1.396       .  A
C983        C990   1.510   1_554  S
C984        C985   1.406       .  A
C984        H989   1.085   1_554  S
C985        C986   1.412       .  A
C986        C987   1.505       .  S
C987        H991   1.111       .  S
C987        H992   1.110       .  S
C987        H993   1.109       .  S
C990       H1406   1.110       .  S
C990        H995   1.111   1_556  S
C990       H1408   1.111       .  S
H994       C1402   1.110       .  S
H996       C1402   1.111       .  S
C997        C998   1.405       .  A
C997       C1002   1.405       .  A
C997       H1004   1.084       .  S
C998        C999   1.412       .  A
C999       C1000   1.402       .  A
C999       C1418   1.509       .  S
C1000      C1001   1.410       .  A
C1000      H1417   1.084       .  S
C1001      C1002   1.417       .  A
C1002      C1003   1.507       .  S
C1003      H1007   1.111       .  S
C1003      H1008   1.110       .  S
C1003      H1009   1.109       .  S
H1005      C1412   1.084   1_554  S
C1006      C1411   1.509   1_554  S
C1006      H1010   1.109       .  S
C1006      H1011   1.111       .  S
C1006      H1012   1.111       .  S
C1013      C1014   1.408       .  A
C1013      C1018   1.405       .  A
C1013      H1020   1.083       .  S
C1014      C1015   1.419       .  A
C1015      C1016   1.402       .  A
C1015      C1022   1.509       .  S
C1016      C1017   1.400       .  A
C1016      H1433   1.084       .  S
C1017      C1018   1.410       .  A
C1018      C1019   1.507       .  S
C1019      H1023   1.111       .  S
C1019      H1024   1.111       .  S
C1019      H1025   1.110       .  S
H1021      C1428   1.084   1_554  S
C1022      H1438   1.110       .  S
C1022      H1027   1.110       .  S
C1022      H1440   1.111       .  S
H1026      C1434   1.110       .  S
H1028      C1434   1.111       .  S
C1029      C1030   1.398       .  A
C1029      C1034   1.405       .  A
C1029      H1036   1.084       .  S
C1030      C1031   1.407       .  A
C1031      C1032   1.402       .  A
C1031      C1038   1.508       .  S
C1032      C1033   1.409       .  A
C1032      H1037   1.083       .  S
C1033      C1034   1.422       .  A
C1034      C1035   1.508       .  S
C1035      H1039   1.111       .  S
C1035      H1040   1.110       .  S
C1035      H1041   1.110       .  S
C1038      H1042   1.110       .  S
C1038      H1043   1.111       .  S
C1038      H1044   1.110       .  S
C1045      C1046   1.400       .  A
C1045      C1050   1.405       .  A
C1045      H1052   1.083       .  S
C1046      C1047   1.412       .  A
C1047      C1048   1.402       .  A
C1047      C1054   1.508       .  S
C1048      C1049   1.404       .  A
C1048      H1053   1.083       .  S
C1049      C1050   1.418       .  A
C1050      C1051   1.508       .  S
C1051      H1055   1.110       .  S
C1051      H1056   1.110       .  S
C1051      H1057   1.111       .  S
C1054      H1470   1.109   1_554  S
C1054      H1059   1.111       .  S
C1054      H1060   1.110       .  S
H1058      C1466   1.109       .  S
C1061      C1062   1.404       .  A
C1061      C1066   1.394       .  A
C1061      H1068   1.085   1_554  S
C1062      C1063   1.410       .  A
C1063      C1064   1.409       .  A
C1063      C1070   1.504       .  S
C1064      C1065   1.404       .  A
C1064      H1069   1.084       .  S
C1065      C1066   1.408       .  A
C1066      C1067   1.510       .  S
C1067      H1071   1.111   1_554  S
C1067      H1072   1.110   1_554  S
C1067      H1073   1.111       .  S
C1070      H1074   1.110       .  S
C1070      H1075   1.110       .  S
C1070      H1076   1.111       .  S
C1077      C1078   1.404       .  A
C1077      C1082   1.405       .  A
C1077      H1084   1.084       .  S
C1078      C1079   1.415       .  A
C1079      C1080   1.402       .  A
C1079      C1498   1.508       .  S
C1080      C1081   1.403       .  A
C1080      H1497   1.085       .  S
C1081      C1082   1.414       .  A
C1082      C1083   1.507       .  S
C1083      H1087   1.111       .  S
C1083      H1088   1.110       .  S
C1083      H1089   1.110       .  S
H1085      C1492   1.085   1_554  S
C1086      C1491   1.508       .  S
C1086      H1502   1.109       .  S
C1086      H1091   1.110   1_556  S
C1086      H1092   1.111   1_556  S
H1090      C1498   1.109       .  S
C1093      C1094   1.399       .  A
C1093      C1098   1.403       .  A
C1093      H1512   1.085       .  S
C1094      C1095   1.416       .  A
C1095      C1096   1.405       .  A
C1095      C1102   1.508       .  S
C1096      C1097   1.405       .  A
C1096      H1101   1.084       .  S
C1097      C1098   1.425       .  A
C1099      H1103   1.111       .  S
C1099      H1104   1.110       .  S
H1100      C1505   1.085   1_554  S
C1102      H1106   1.109       .  S
C1102      H1107   1.110       .  S
C1102      H1108   1.111       .  S
C1109      C1110   1.408       .  A
C1109      C1114   1.402       .  A
C1109      H1116   1.084       .  S
C1110      C1111   1.416       .  A
C1111      C1112   1.406       .  A
C1111      C1118   1.507       .  S
C1112      C1113   1.406       .  A
C1112      H1117   1.084       .  S
C1113      C1114   1.414       .  A
C1114      C1115   1.509       .  S
C1115      H1119   1.111       .  S
C1115      H1120   1.110       .  S
C1115      H1121   1.110       .  S
C1118      H1122   1.110       .  S
C1118      H1123   1.110       .  S
C1118      H1124   1.111       .  S
C1125      C1126   1.404       .  A
C1125      C1130   1.404       .  A
C1125      H1132   1.083       .  S
C1126      C1127   1.423       .  A
C1127      C1128   1.405       .  A
C1127      C1134   1.509       .  S
C1128      C1129   1.402       .  A
C1128      H1133   1.084       .  S
C1129      C1130   1.420       .  A
C1130      C1131   1.509       .  S
C1131      H1135   1.111       .  S
C1131      H1136   1.109       .  S
C1131      H1137   1.110       .  S
C1134      H1138   1.109       .  S
C1134      H1139   1.110       .  S
C1134      H1140   1.111       .  S
C1141      C1142   1.405       .  A
C1141      C1146   1.404       .  A
C1141      H1148   1.085       .  S
C1142      C1143   1.415       .  A
C1143      C1144   1.405       .  A
C1143      C1150   1.507       .  S
C1144      C1145   1.403       .  A
C1144      H1149   1.084       .  S
C1145      C1146   1.414       .  A
C1146      C1147   1.508       .  S
C1147      H1151   1.111       .  S
C1147      H1152   1.109       .  S
C1147      H1153   1.111       .  S
C1150      H1154   1.110       .  S
C1150      H1155   1.110       .  S
C1150      H1156   1.111       .  S
C1157      C1158   1.409       .  A
C1157      C1162   1.403       .  A
C1157      H1164   1.084       .  S
C1158      C1159   1.424       .  A
C1159      C1160   1.406       .  A
C1159      C1166   1.508       .  S
C1160      C1161   1.398       .  A
C1160      H1165   1.085       .  S
C1161      C1162   1.408       .  A
C1162      C1163   1.507       .  S
C1163      H1167   1.111       .  S
C1163      H1168   1.110   1_565  S
C1163      H1169   1.110       .  S
C1166      H1170   1.110       .  S
C1166      H1171   1.110       .  S
C1166      H1172   1.111       .  S
C1173      C1174   1.404       .  A
C1173      C1178   1.406       .  A
C1173      H1180   1.083       .  S
C1174      C1175   1.416       .  A
C1175      C1176   1.404       .  A
C1175      C1182   1.508       .  S
C1176      C1177   1.403       .  A
C1176      H1181   1.083       .  S
C1177      C1178   1.414       .  A
C1178      C1179   1.507       .  S
C1179      H1183   1.110       .  S
C1179      H1184   1.110       .  S
C1179      H1185   1.111       .  S
C1182      H1186   1.109       .  S
C1182      H1187   1.111       .  S
C1182      H1188   1.110       .  S
C1189      H1196   1.084       .  S
C1190      C1191   1.418       .  A
C1191      C1192   1.405       .  A
C1191      C1198   1.508       .  S
C1192      C1193   1.404       .  A
C1192      H1197   1.083       .  S
C1193      C1194   1.422       .  A
C1195      H1199   1.111       .  S
C1195      H1200   1.110       .  S
C1195      H1201   1.110       .  S
C1198      H1202   1.108       .  S
C1198      H1203   1.111       .  S
C1198      H1204   1.111       .  S
C1205      C1206   1.400       .  A
C1205      C1210   1.406       .  A
C1205      H1212   1.085       .  S
C1206      C1207   1.410       .  A
C1207      C1208   1.402       .  A
C1207      C1214   1.508       .  S
C1208      C1209   1.408       .  A
C1208      H1213   1.084       .  S
C1209      C1210   1.422       .  A
C1210      C1211   1.508       .  S
C1211      H1215   1.111       .  S
C1211      H1216   1.110       .  S
C1211      H1217   1.110       .  S
C1214      H1218   1.110       .  S
C1214      H1219   1.109       .  S
C1214      H1220   1.111       .  S
C1221      C1222   1.398       .  A
C1221      C1226   1.397       .  A
C1221      H1228   1.086       .  S
C1222      C1223   1.416       .  A
C1223      C1224   1.408       .  A
C1223      C1230   1.507       .  S
C1224      C1225   1.404       .  A
C1224      H1229   1.084       .  S
C1225      C1226   1.422       .  A
C1226      C1227   1.511       .  S
C1227      H1231   1.110       .  S
C1227      H1232   1.111       .  S
C1227      H1233   1.102       .  S
C1230      H1234   1.109       .  S
C1230      H1235   1.110       .  S
C1230      H1236   1.111       .  S
O1237      C1240   1.269       .  A
O1237     Cd1242   2.495       .  S
C1238      O1247   1.262       .  A
C1238      O1243   1.268       .  A
O1239      C1245   1.269       .  A
O1239     Cd1242   2.448   1_455  S
C1240      O1248   1.264       .  A
C1240      C1329   1.464       .  S
C1241      O1246   1.266       .  A
C1241      O1244   1.260       .  A
C1241      C1634   1.477       .  S
Cd1242     O1249   2.459   1_655  S
Cd1242     O1248   2.416       .  S
Cd1242     O1247   2.462       .  S
Cd1242     O1243   2.493       .  S
Cd1242     O1246   2.475       .  S
Cd1242     O1244   2.446       .  S
C1245      O1249   1.268       .  A
C1245      C1621   1.491       .  S
O1250      C1253   1.269   1_455  A
O1250     Cd1255   2.477   1_445  S
C1251      O1260   1.263       .  A
C1251      O1256   1.269       .  A
C1251      C1316   1.465       .  S
O1252      C1258   1.271       .  A
O1252     Cd1255   2.502       .  S
C1253      O1261   1.265   1_545  A
C1254      O1259   1.269   1_455  A
C1254      O1257   1.267       .  A
C1254      C1589   1.480       .  S
Cd1255     O1262   2.423       .  S
Cd1255     O1261   2.463       .  S
Cd1255     O1260   2.417       .  S
Cd1255     O1256   2.500       .  S
Cd1255     O1259   2.464       .  S
Cd1255     O1257   2.452   1_655  S
C1258      O1262   1.261       .  A
C1258      C1605   1.492       .  S
O1263      C1266   1.270       .  A
C1264      O1273   1.263       .  A
C1264      O1269   1.272       .  A
C1264      C1637   1.479       .  S
O1265      C1271   1.271       .  A
O1265     Cd1268   2.458       .  S
C1266      O1274   1.265       .  A
C1266      C1573   1.470       .  S
C1267      O1270   1.261       .  A
C1267      C1602   1.486       .  S
Cd1268     O1275   2.433       .  S
Cd1268     O1273   2.411       .  S
Cd1268     O1269   2.484       .  S
Cd1268     O1272   2.490       .  S
C1271      O1275   1.269       .  A
C1271      C1554   1.482       .  S
O1276      C1279   1.268       .  A
O1276     Cd1281   2.479       .  S
C1277      O1286   1.263       .  A
C1277      O1282   1.268       .  A
C1277      C1355   1.464       .  S
O1278      C1284   1.269       .  A
O1278     Cd1281   2.503       .  S
C1279      O1287   1.264       .  A
C1279      C1292   1.466       .  S
C1280      O1285   1.269       .  A
C1280      O1283   1.267       .  A
C1280      C1557   1.479       .  S
Cd1281     O1288   2.424       .  S
Cd1281     O1287   2.454       .  S
Cd1281     O1286   2.425       .  S
Cd1281     O1282   2.496       .  S
Cd1281     O1285   2.459       .  S
Cd1281     O1283   2.452       .  S
C1284      O1288   1.260       .  A
C1284      C1541   1.488       .  S
O1289      C1292   1.268       .  A
O1289     Cd1294   2.476       .  S
C1290      O1299   1.264       .  A
C1290      O1295   1.269       .  A
C1290      C1368   1.463       .  S
O1291      C1297   1.269       .  A
O1291     Cd1294   2.501       .  S
C1292      O1300   1.264       .  A
C1293      O1298   1.271       .  A
C1293      O1296   1.267       .  A
C1293      C1570   1.493       .  S
Cd1294     O1301   2.413       .  S
Cd1294     O1300   2.457       .  S
Cd1294     O1299   2.419       .  S
Cd1294     O1295   2.492       .  S
Cd1294     O1298   2.457       .  S
Cd1294     O1296   2.452       .  S
C1297      O1301   1.262       .  A
C1297      C1522   1.490       .  S
O1302      C1305   1.273       .  A
O1302     Cd1307   2.488       .  S
C1303      O1312   1.266       .  A
C1303      O1308   1.271       .  A
C1303      C1586   1.482       .  S
O1304      C1310   1.272       .  A
O1304     Cd1307   2.467       .  S
C1305      O1313   1.261       .  A
C1305      C1538   1.492       .  S
C1306      O1311   1.270       .  A
C1306      O1309   1.266       .  A
C1306      C1618   1.473       .  S
Cd1307     O1314   2.413       .  S
Cd1307     O1313   2.411       .  S
Cd1307     O1312   2.429       .  S
Cd1307     O1308   2.475       .  S
Cd1307     O1311   2.469       .  S
Cd1307     O1309   2.429       .  S
C1310      O1314   1.265       .  A
C1310      C1525   1.483       .  S
O1315      C1318   1.268       .  A
O1315     Cd1320   2.484   1_645  S
C1316      O1325   1.263   1_655  A
C1316      O1321   1.269       .  A
O1317      C1323   1.268       .  A
O1317     Cd1320   2.490       .  S
C1318      O1326   1.263   1_545  A
C1319      O1324   1.269       .  A
C1319      O1322   1.267       .  A
C1319      C1490   1.480       .  S
Cd1320     O1327   2.436       .  S
Cd1320     O1326   2.454   1_455  S
Cd1320     O1325   2.420       .  S
Cd1320     O1321   2.499   1_455  S
Cd1320     O1324   2.459   1_455  S
Cd1320     O1322   2.450   1_455  S
C1323      O1327   1.261       .  A
C1323      C1506   1.481       .  S
O1328      C1331   1.269       .  A
O1328     Cd1333   2.473       .  S
C1329      O1338   1.263   1_655  A
C1329      O1334   1.269       .  A
O1330      C1336   1.267       .  A
O1330     Cd1333   2.476   1_455  S
C1331      O1339   1.264       .  A
C1332      O1337   1.267       .  A
C1332      O1335   1.269       .  A
C1332      C1461   1.482       .  S
Cd1333     O1340   2.419   1_655  S
Cd1333     O1339   2.456       .  S
Cd1333     O1338   2.418   1_655  S
Cd1333     O1334   2.498       .  S
Cd1333     O1337   2.445       .  S
Cd1333     O1335   2.458       .  S
C1336      O1340   1.261       .  A
C1336      C1477   1.463       .  S
O1341      C1344   1.272       .  A
C1342      C1509   1.491       .  S
O1343      C1349   1.272       .  A
C1344      C1429   1.474       .  S
C1345      O1350   1.274       .  A
C1345      O1348   1.265       .  A
C1345      C1474   1.470       .  S
Cd1346     O1352   2.411       .  S
Cd1346     O1350   2.479       .  S
Cd1346     O1348   2.372       .  S
C1349      C1442   1.466       .  S
O1354      C1357   1.268       .  A
O1354     Cd1359   2.481       .  S
C1355      O1364   1.264       .  A
C1355      O1360   1.269       .  A
O1356      C1362   1.266       .  A
O1356     Cd1359   2.478       .  S
C1357      O1365   1.262   1_556  A
C1358      O1363   1.267       .  A
C1358      O1361   1.269       .  A
C1358      C1426   1.487       .  S
Cd1359     O1366   2.441       .  S
Cd1359     O1365   2.457   1_556  S
Cd1359     O1364   2.421       .  S
Cd1359     O1360   2.494       .  S
Cd1359     O1363   2.436       .  S
Cd1359     O1361   2.464       .  S
C1362      O1366   1.262       .  A
C1362      C1410   1.481       .  S
O1367      C1370   1.269       .  A
O1367     Cd1372   2.481       .  S
C1368      O1377   1.264       .  A
C1368      O1373   1.269       .  A
O1369      C1375   1.266       .  A
O1369     Cd1372   2.468       .  S
C1370      O1378   1.262       .  A
C1371      O1376   1.267       .  A
C1371      O1374   1.269       .  A
C1371      C1445   1.489       .  S
Cd1372     O1379   2.439       .  S
Cd1372     O1378   2.450       .  S
Cd1372     O1377   2.420       .  S
Cd1372     O1373   2.491       .  S
Cd1372     O1376   2.441       .  S
Cd1372     O1374   2.455       .  S
C1375      O1379   1.261       .  A
C1375      C1394   1.465       .  S
O1380      C1383   1.274       .  A
O1380     Cd1385   2.483       .  S
C1381      O1386   1.272       .  A
C1381      C1458   1.473       .  S
O1382      C1388   1.274       .  A
C1383      O1391   1.265       .  A
C1383      C1397   1.475       .  S
C1384      O1389   1.271       .  A
C1384      C1493   1.479       .  S
Cd1385     O1392   2.393       .  S
Cd1385     O1391   2.377       .  S
Cd1385     O1386   2.472       .  S
Cd1385     O1387   2.420       .  S
C1388      C1413   1.491       .  S
C1393      C1394   1.404       .  A
C1393      C1398   1.409       .  A
C1393      H1400   1.084       .  S
C1394      C1395   1.408       .  A
C1395      C1396   1.396       .  A
C1395      C1402   1.510       .  S
C1396      C1397   1.406       .  A
C1396      H1401   1.085       .  S
C1397      C1398   1.412       .  A
C1398      C1399   1.505       .  S
C1399      H1403   1.111       .  S
C1399      H1404   1.110       .  S
C1399      H1405   1.109       .  S
C1402      H1407   1.111       .  S
C1409      C1410   1.405       .  A
C1409      C1414   1.405       .  A
C1409      H1416   1.084       .  S
C1410      C1411   1.412       .  A
C1411      C1412   1.402       .  A
C1412      C1413   1.410       .  A
C1413      C1414   1.417       .  A
C1414      C1415   1.507       .  S
C1415      H1419   1.111       .  S
C1415      H1420   1.110       .  S
C1415      H1421   1.109       .  S
C1418      H1422   1.109       .  S
C1418      H1423   1.111       .  S
C1418      H1424   1.111       .  S
C1425      C1426   1.408       .  A
C1425      C1430   1.405       .  A
C1425      H1432   1.083       .  S
C1426      C1427   1.419       .  A
C1427      C1428   1.402       .  A
C1427      C1434   1.509   1_556  S
C1428      C1429   1.400       .  A
C1429      C1430   1.410       .  A
C1430      C1431   1.507       .  S
C1431      H1435   1.111       .  S
C1431      H1436   1.111       .  S
C1431      H1437   1.110       .  S
C1434      H1439   1.110   1_554  S
C1441      C1442   1.398       .  A
C1441      C1446   1.405       .  A
C1441      H1448   1.084       .  S
C1442      C1443   1.407       .  A
C1443      C1444   1.402       .  A
C1443      C1450   1.508       .  S
C1444      C1445   1.409       .  A
C1444      H1449   1.083       .  S
C1445      C1446   1.422       .  A
C1446      C1447   1.508       .  S
C1447      H1451   1.111       .  S
C1447      H1452   1.110       .  S
C1447      H1453   1.110       .  S
C1450      H1454   1.110       .  S
C1450      H1455   1.111       .  S
C1450      H1456   1.110       .  S
C1457      C1458   1.400       .  A
C1457      C1462   1.405       .  A
C1457      H1464   1.083       .  S
C1458      C1459   1.412       .  A
C1459      C1460   1.402       .  A
C1459      C1466   1.508       .  S
C1460      C1461   1.404       .  A
C1460      H1465   1.083       .  S
C1461      C1462   1.418       .  A
C1462      C1463   1.508       .  S
C1463      H1467   1.110       .  S
C1463      H1468   1.110       .  S
C1463      H1469   1.111       .  S
C1466      H1471   1.111       .  S
C1466      H1472   1.110       .  S
C1473      C1474   1.404       .  A
C1473      C1478   1.394       .  A
C1473      H1480   1.085       .  S
C1474      C1475   1.410       .  A
C1475      C1476   1.409       .  A
C1475      C1482   1.504       .  S
C1476      C1477   1.404       .  A
C1476      H1481   1.084       .  S
C1477      C1478   1.408       .  A
C1478      C1479   1.510       .  S
C1479      H1483   1.111       .  S
C1479      H1484   1.110       .  S
C1479      H1485   1.111       .  S
C1482      H1486   1.110       .  S
C1482      H1487   1.110       .  S
C1482      H1488   1.111       .  S
C1489      C1490   1.404       .  A
C1489      C1494   1.405       .  A
C1489      H1496   1.084       .  S
C1490      C1491   1.415       .  A
C1491      C1492   1.402       .  A
C1492      C1493   1.403       .  A
C1493      C1494   1.414       .  A
C1494      C1495   1.507       .  S
C1495      H1499   1.111       .  S
C1495      H1500   1.110       .  S
C1495      H1501   1.110       .  S
C1498      H1503   1.110       .  S
C1498      H1504   1.111       .  S
C1505      C1506   1.399       .  A
C1505      C1510   1.403       .  A
C1506      C1507   1.416       .  A
C1507      C1508   1.405       .  A
C1507      C1514   1.508       .  S
C1508      C1509   1.405       .  A
C1508      H1513   1.084       .  S
C1509      C1510   1.425       .  A
C1511      H1515   1.111       .  S
C1511      H1516   1.110       .  S
C1514      H1518   1.109       .  S
C1514      H1519   1.110       .  S
C1514      H1520   1.111       .  S
C1521      C1522   1.408       .  A
C1521      C1526   1.402       .  A
C1521      H1528   1.084       .  S
C1522      C1523   1.416       .  A
C1523      C1524   1.406       .  A
C1523      C1530   1.507       .  S
C1524      C1525   1.406       .  A
C1524      H1529   1.084       .  S
C1525      C1526   1.414       .  A
C1526      C1527   1.509       .  S
C1527      H1531   1.111       .  S
C1527      H1532   1.110       .  S
C1527      H1533   1.110       .  S
C1530      H1534   1.110       .  S
C1530      H1535   1.110       .  S
C1530      H1536   1.111       .  S
C1537      C1538   1.404       .  A
C1537      C1542   1.404       .  A
C1537      H1544   1.083       .  S
C1538      C1539   1.423       .  A
C1539      C1540   1.405       .  A
C1539      C1546   1.509       .  S
C1540      C1541   1.402       .  A
C1540      H1545   1.084       .  S
C1541      C1542   1.420       .  A
C1542      C1543   1.509       .  S
C1543      H1547   1.111       .  S
C1543      H1548   1.109       .  S
C1543      H1549   1.110       .  S
C1546      H1550   1.109       .  S
C1546      H1551   1.110       .  S
C1546      H1552   1.111       .  S
C1553      C1554   1.405       .  A
C1553      C1558   1.404       .  A
C1553      H1560   1.085       .  S
C1554      C1555   1.415       .  A
C1555      C1556   1.405       .  A
C1555      C1562   1.507       .  S
C1556      C1557   1.403       .  A
C1556      H1561   1.084       .  S
C1557      C1558   1.414       .  A
C1558      C1559   1.508       .  S
C1559      H1563   1.111       .  S
C1559      H1564   1.109       .  S
C1559      H1565   1.111       .  S
C1562      H1566   1.110       .  S
C1562      H1567   1.110       .  S
C1562      H1568   1.111       .  S
C1569      C1570   1.409       .  A
C1569      C1574   1.403       .  A
C1569      H1576   1.084       .  S
C1570      C1571   1.424       .  A
C1571      C1572   1.406       .  A
C1571      C1578   1.508       .  S
C1572      C1573   1.398       .  A
C1572      H1577   1.085       .  S
C1573      C1574   1.408       .  A
C1574      C1575   1.507       .  S
C1575      H1579   1.111       .  S
C1575      H1580   1.110   1_565  S
C1575      H1581   1.110       .  S
C1578      H1582   1.110       .  S
C1578      H1583   1.110       .  S
C1578      H1584   1.111       .  S
C1585      C1586   1.404       .  A
C1585      C1590   1.406       .  A
C1585      H1592   1.083       .  S
C1586      C1587   1.416       .  A
C1587      C1588   1.404       .  A
C1587      C1594   1.508       .  S
C1588      C1589   1.403       .  A
C1588      H1593   1.083       .  S
C1589      C1590   1.414       .  A
C1590      C1591   1.507       .  S
C1591      H1595   1.110       .  S
C1591      H1596   1.110       .  S
C1591      H1597   1.111       .  S
C1594      H1598   1.109       .  S
C1594      H1599   1.111       .  S
C1594      H1600   1.110       .  S
C1601      H1608   1.084       .  S
C1602      C1603   1.418       .  A
C1603      C1604   1.405       .  A
C1603      C1610   1.508       .  S
C1604      C1605   1.404       .  A
C1604      H1609   1.083       .  S
C1605      C1606   1.422       .  A
C1607      H1611   1.111       .  S
C1607      H1612   1.110       .  S
C1607      H1613   1.110       .  S
C1610      H1614   1.108       .  S
C1610      H1615   1.111       .  S
C1610      H1616   1.111       .  S
C1617      C1618   1.400       .  A
C1617      C1622   1.406       .  A
C1617      H1624   1.085       .  S
C1618      C1619   1.410       .  A
C1619      C1620   1.402       .  A
C1619      C1626   1.508       .  S
C1620      C1621   1.408       .  A
C1620      H1625   1.084       .  S
C1621      C1622   1.422       .  A
C1622      C1623   1.508       .  S
C1623      H1627   1.111       .  S
C1623      H1628   1.110       .  S
C1623      H1629   1.110       .  S
C1626      H1630   1.110       .  S
C1626      H1631   1.109       .  S
C1626      H1632   1.111       .  S
C1633      C1634   1.398       .  A
C1633      C1638   1.397       .  A
C1633      H1640   1.086       .  S
C1634      C1635   1.416       .  A
C1635      C1636   1.408       .  A
C1635      C1642   1.507       .  S
C1636      C1637   1.404       .  A
C1636      H1641   1.084       .  S
C1637      C1638   1.422       .  A
C1638      C1639   1.511       .  S
C1639      H1643   1.110       .  S
C1639      H1644   1.111       .  S
C1639      H1645   1.102       .  S
C1642      H1646   1.109       .  S
C1642      H1647   1.110       .  S
C1642      H1648   1.111       .  S
