geometry optimzed in LAMMPS
_audit_creation_date              2020-11-30 
_audit_creation_method            'lammps2cif' 
_symmetry_space_group_name_H-M    'P1' 
_symmetry_Int_Tables_number       1 
_symmetry_cell_setting            triclinic 
loop_ 
_symmetry_equiv_pos_as_xyz 
  x,y,z 
_cell_length_a                    38.15169595 
_cell_length_b                    38.66393344184737 
_cell_length_c                    38.08429063888814 
_cell_angle_alpha                 91.12346824515652 
_cell_angle_beta                  89.3337123206951 
_cell_angle_gamma                 90.77432294839447 
loop_ 
_atom_site_label 
_atom_site_type_symbol 
_atom_site_fract_x 
_atom_site_fract_y 
_atom_site_fract_z 
_atom_site_charge 
In1        In  0.83285850  0.85728063  0.28557031     1.36900
C2          C  0.80783884  0.83798629  0.34809882     0.78100
O3          O  0.88022108  0.82387560  0.29165859    -0.60300
O4          O  0.88553444  0.86863478  0.26072998    -0.51200
C5          C  0.80025110  0.83151729  0.22818094     0.70800
O6          O  0.80361433  0.81424616  0.25559784    -0.46100
C7          C  0.83143666  0.92516218  0.29931520     0.75500
O8          O  0.79210945  0.85891781  0.32907366    -0.57900
O9          O  0.85703479  0.90655237  0.30696659    -0.48000
O10         O  0.83484668  0.82511524  0.33411961    -0.54400
C11         C  0.90024218  0.84290098  0.27368151     0.85700
O12         O  0.81276613  0.86166230  0.23053145    -0.56300
O13         O  0.80637764  0.90903592  0.28474663    -0.59600
In14       In  0.83271398  0.84214045  0.66551097     1.36900
C15         C  0.81383100  0.82491383  0.59985780     0.78100
O16         O  0.80277525  0.89041869  0.68083770    -0.60300
O17         O  0.85018132  0.89583541  0.65159519    -0.51200
C18         C  0.80129171  0.81066142  0.72012247     0.70800
O19         O  0.79059218  0.80634868  0.68914503    -0.46100
C20         C  0.90099510  0.83015173  0.67322849     0.75500
O21         O  0.80036311  0.84959018  0.61708121    -0.57900
O22         O  0.88655584  0.85770789  0.68344440    -0.48000
O23         O  0.83557328  0.80779968  0.61679983    -0.54400
C24         C  0.82485747  0.91071756  0.66686451     0.85700
O25         O  0.82709121  0.83098461  0.72273301    -0.56300
O26         O  0.88048065  0.80832365  0.65906043    -0.59600
C27         C  0.71312422  0.72244153  0.94569829     0.87000
C28         C  0.71817870  0.68346771  0.94962763    -0.53200
C29         C  0.70261923  0.66978345  0.97897218     0.10000
C30         C  0.68365579  0.69715755  0.00212417     0.20900
C31         C  0.67334631  0.72731903  0.94770886    -0.57100
C32         C  0.65753028  0.71377931  0.97696513     0.10100
C33         C  0.72673905  0.73873426  0.98014931    -0.53500
C34         C  0.71147514  0.72573665  0.00980871     0.10600
H35         H  0.73226071  0.66827852  0.93000654     0.15200
H36         H  0.67105431  0.68681912  0.02618834     0.00900
H37         H  0.65895519  0.73903659  0.92671529     0.15500
H38         H  0.74685786  0.75879173  0.98126385     0.15200
In39       In  0.83810645  0.24503488  0.31453611     1.36900
C40         C  0.82408922  0.26369814  0.38116390     0.78100
O41         O  0.80488571  0.19734855  0.30324220    -0.60300
O42         O  0.85392146  0.19150755  0.32812125    -0.51200
C43         C  0.80684753  0.27555072  0.26050230     0.70800
O44         O  0.79639371  0.27995513  0.29177414    -0.46100
C45         C  0.90652097  0.25465290  0.30344815     0.75500
O46         O  0.84524522  0.28028055  0.36198301    -0.57900
O47         O  0.88994742  0.22810099  0.29294039    -0.48000
O48         O  0.80799464  0.23940017  0.36549070    -0.54400
C49         C  0.82687512  0.17694899  0.31576449     0.85700
O50         O  0.83258492  0.25584268  0.25730279    -0.56300
O51         O  0.88801275  0.27683224  0.31945738    -0.59600
In52       In  0.84390941  0.23144084  0.70017646     1.36900
C53         C  0.82552567  0.24958939  0.63540422     0.78100
O54         O  0.89142064  0.26679524  0.70260679    -0.60300
O55         O  0.89516943  0.21668163  0.72362901    -0.51200
C56         C  0.80929493  0.25825966  0.75630665     0.70800
O57         O  0.81515247  0.27544161  0.72902510    -0.46100
C58         C  0.83992510  0.16311528  0.68851369     0.75500
O59         O  0.85365441  0.25953226  0.64950808    -0.57900
O60         O  0.86575501  0.18150931  0.67899268    -0.48000
O61         O  0.80549779  0.23245530  0.65528660    -0.54400
C62         C  0.91054130  0.24477934  0.71665856     0.85700
O63         O  0.81993810  0.22768153  0.75415463    -0.56300
O64         O  0.81569589  0.17971149  0.70386427    -0.59600
C65         C  0.71814339  0.36581238  0.03898377     0.87000
C66         C  0.72325077  0.40507964  0.03559983    -0.53200
C67         C  0.70840221  0.41822370  0.00635372     0.10000
C68         C  0.68973120  0.39098421  0.98299985     0.20900
C69         C  0.67825043  0.36008913  0.03733824    -0.53900
C70         C  0.66311008  0.37352110  0.00822479     0.10100
C71         C  0.73208688  0.35020393  0.00404739    -0.53500
C72         C  0.71731811  0.36319060  0.97470566     0.10600
H73         H  0.73694296  0.42114076  0.05487975     0.15200
H74         H  0.67783750  0.40202839  0.95930891     0.00900
H75         H  0.66342478  0.34684526  0.05764951     0.15500
H76         H  0.75199214  0.33047796  0.00232188     0.15200
In77       In  0.22347358  0.84308139  0.27572672     1.36900
C78         C  0.23574115  0.82361486  0.34134400     0.78100
O79         O  0.25907975  0.89050277  0.27892420    -0.60300
O80         O  0.20473972  0.89628521  0.28949682    -0.51200
C81         C  0.25680274  0.81021217  0.22185060     0.70800
O82         O  0.24924988  0.84173658  0.22186244    -0.46100
C83         C  0.15520361  0.83774470  0.26178023     0.75500
O84         O  0.25743786  0.84184939  0.32435994    -0.57900
O85         O  0.17511883  0.85988270  0.24765122    -0.48000
O86         O  0.20971925  0.81335397  0.32388504    -0.54400
C87         C  0.23445457  0.91071968  0.28715557     0.85700
O88         O  0.24786484  0.79525290  0.24965212    -0.56300
O89         O  0.17055957  0.81709276  0.28141120    -0.59600
In90       In  0.22432922  0.84247583  0.66287513     1.36900
C91         C  0.24079209  0.82529420  0.59652723     0.78100
O92         O  0.17316877  0.81221743  0.66104207    -0.60300
O93         O  0.17332196  0.86289846  0.68343771    -0.51200
C94         C  0.25281890  0.80900281  0.71619743     0.70800
O95         O  0.25983239  0.80115859  0.68460728    -0.46100
C96         C  0.24062153  0.90949914  0.66094828     0.75500
O97         O  0.26175203  0.84147967  0.61645272    -0.57900
O98         O  0.21527329  0.89598269  0.64452536    -0.48000
O99         O  0.21280703  0.81541159  0.61137456    -0.54400
C100        C  0.15566006  0.83622071  0.67537927     0.85700
O101        O  0.23164053  0.83338415  0.72001176    -0.56300
O102        O  0.25814063  0.88861694  0.67848961    -0.59600
C103        C  0.34428016  0.71728372  0.93529441     0.87000
C104        C  0.38415183  0.72177890  0.93471620    -0.53200
C105        C  0.40087419  0.70765846  0.96253681     0.10000
C106        C  0.37541406  0.68996999  0.98884771     0.20900
C107        C  0.33790340  0.67841016  0.93836649    -0.53900
C108        C  0.35410602  0.66363594  0.96612809     0.10100
C109        C  0.33287178  0.73259756  0.97098525    -0.53500
C110        C  0.34905966  0.71868539  0.99911068     0.10600
H111        H  0.39783498  0.73522731  0.91377027     0.15200
H112        H  0.38846445  0.67875989  0.01179200     0.00900
H113        H  0.32224166  0.66384753  0.91944376     0.15500
H114        H  0.31416494  0.75335133  0.97405050     0.15200
In115      In  0.22617733  0.23074082  0.28978648     1.36900
C116        C  0.24348162  0.24728885  0.35599340     0.78100
O117        O  0.17803071  0.26371799  0.29402771    -0.60300
O118        O  0.17553259  0.21782132  0.26268103    -0.51200
C119        C  0.26222617  0.25823480  0.23563430     0.70800
O120        O  0.25747849  0.27494772  0.26399604    -0.46100
C121        C  0.22885165  0.16235684  0.29740530     0.75500
O122        O  0.21634333  0.25828268  0.34168355    -0.57900
O123        O  0.20156684  0.17968218  0.30309847    -0.48000
O124        O  0.26311286  0.22991826  0.33571974    -0.54400
C125        C  0.15939764  0.24334144  0.27566096     0.85700
O126        O  0.24927378  0.22823996  0.23567408    -0.56300
O127        O  0.25525089  0.18003210  0.28795479    -0.59600
In128      In  0.22924083  0.22728329  0.67614583     1.36900
C129        C  0.24177779  0.25002831  0.61118963     0.78100
O130        O  0.26076177  0.17844841  0.68198448    -0.60300
O131        O  0.21488330  0.17660553  0.65090172    -0.51200
C132        C  0.26176800  0.25871844  0.73091711     0.70800
O133        O  0.26431896  0.26987762  0.70008754    -0.46100
C134        C  0.16211991  0.23215155  0.69566883     0.75500
O135        O  0.21575719  0.25929739  0.62960088    -0.57900
O136        O  0.18003885  0.20564890  0.70058292    -0.48000
O137        O  0.26310797  0.23125931  0.62699050    -0.54400
C138        C  0.24016279  0.16031313  0.66322830     0.85700
O139        O  0.24425754  0.23109333  0.73313814    -0.56300
O140        O  0.17846142  0.25636085  0.68064285    -0.59600
C141        C  0.35293887  0.35652759  0.95398307     0.87000
C142        C  0.34533877  0.39526199  0.95689681    -0.53200
C143        C  0.35968550  0.41173615  0.98559521     0.10000
C144        C  0.37979971  0.38726311  0.00953610     0.20900
C145        C  0.39307341  0.35434999  0.95580771    -0.53900
C146        C  0.40721466  0.37020606  0.98498391     0.10100
C147        C  0.33972507  0.34195810  0.98910697    -0.53500
C148        C  0.35367987  0.35783636  0.01828675     0.10600
H149        H  0.33127409  0.40862563  0.93673642     0.15200
H150        H  0.39127159  0.40030437  0.03303197     0.00900
H151        H  0.40877551  0.34098190  0.93597478     0.15500
H152        H  0.32059899  0.32107984  0.99092722     0.15200
C153        C  0.30599496  0.31277546  0.80514793     0.16500
C154        C  0.32548178  0.33643678  0.82596296    -0.32500
C155        C  0.32566490  0.33158438  0.86254258     0.20900
C156        C  0.30675546  0.30479059  0.87764468     0.03100
C157        C  0.28729075  0.28126543  0.85694198    -0.22300
C158        C  0.28760406  0.28572435  0.82045506     0.12300
S159        S  0.30282082  0.31338167  0.76022061    -0.05900
C160        C  0.27703576  0.27641253  0.76216206    -0.09400
C161        C  0.27103088  0.26487998  0.79603125    -0.26000
S162        S  0.30989572  0.30335667  0.92225914    -0.03200
C163        C  0.33739886  0.33925061  0.92114512    -0.16700
C164        C  0.34352446  0.35122793  0.88728649    -0.14600
H165        H  0.34012764  0.35746829  0.81414575     0.20700
H166        H  0.27277193  0.26014531  0.86876430     0.16800
H167        H  0.25532427  0.24229091  0.80248277     0.19300
H168        H  0.35994406  0.37342381  0.88120790     0.12600
C169        C  0.30291492  0.27944659  0.14616097     0.16500
C170        C  0.31284393  0.27830535  0.11077297    -0.32500
C171        C  0.32544541  0.30881889  0.09585891     0.20900
C172        C  0.32887561  0.33928664  0.11532462     0.03100
C173        C  0.31910756  0.34043303  0.15120539    -0.22300
C174        C  0.30568668  0.30974521  0.16610778     0.12300
S175        S  0.28507219  0.24524470  0.16761807    -0.05900
C176        C  0.28043289  0.27163566  0.20417999    -0.09400
C177        C  0.29281399  0.30537933  0.19984750    -0.26000
S178        S  0.34414081  0.37351455  0.09109299    -0.03200
C179        C  0.34478482  0.34637751  0.05444241    -0.16700
C180        C  0.33452935  0.31264687  0.06134623    -0.14600
H181        H  0.31000303  0.25470565  0.09520784     0.20700
H182        H  0.32110918  0.36424656  0.16652447     0.16800
H183        H  0.29152021  0.32567673  0.21979203     0.19300
H184        H  0.33340977  0.29178390  0.04199457     0.12600
C185        C  0.26764493  0.24651201  0.45362145     0.16500
C186        C  0.28045618  0.23786443  0.48669111    -0.32500
C187        C  0.26287704  0.25100416  0.51659824     0.20900
C188        C  0.23421425  0.27239087  0.51367470     0.03100
C189        C  0.22168440  0.28142482  0.48059863    -0.22300
C190        C  0.23881394  0.26767995  0.45071250     0.12300
S191        S  0.28341652  0.23072362  0.41435981    -0.05900
C192        C  0.25055889  0.25242268  0.39375644    -0.09400
C193        C  0.22890857  0.27121603  0.41639344    -0.26000
S194        S  0.21484193  0.28341612  0.55294162    -0.03200
C195        C  0.24528048  0.25854005  0.57361512    -0.16700
C196        C  0.26951763  0.24316746  0.55095607    -0.14600
H197        H  0.30238859  0.22060122  0.48900814     0.20700
H198        H  0.19875934  0.29739911  0.47827761     0.16800
H199        H  0.20627111  0.28553336  0.40830166     0.19300
H200        H  0.28966474  0.22561439  0.55899263     0.12600
C201        C  0.37193368  0.51061544  0.99834412     0.16500
C202        C  0.38472943  0.54455373  0.00431617    -0.32500
C203        C  0.36624055  0.57187685  0.98947153     0.20900
C204        C  0.33636821  0.56545569  0.96989160     0.03100
C205        C  0.32354469  0.53182007  0.96420604    -0.22300
C206        C  0.34203978  0.50470948  0.97870296     0.12300
S207        S  0.39118159  0.47347097  0.01204530    -0.05900
C208        C  0.35888802  0.44997232  0.99039028    -0.09400
C209        C  0.33429689  0.47029902  0.97434950    -0.26000
S210        S  0.31817432  0.60120108  0.95289619    -0.03200
C211        C  0.35113823  0.62577681  0.97204312    -0.16700
C212        C  0.37481262  0.60665091  0.99099089    -0.14600
H213        H  0.40833555  0.54937735  0.01924035     0.20700
H214        H  0.30046642  0.52692332  0.94847611     0.16800
H215        H  0.31222611  0.46053371  0.95936632     0.19300
H216        H  0.39760642  0.61733103  0.00417348     0.12600
C217        C  0.26479240  0.00594082  0.67013817     0.16500
C218        C  0.27621087  0.03898846  0.68142431    -0.32500
C219        C  0.26067883  0.06775995  0.66615280     0.20900
C220        C  0.23551026  0.06368032  0.64033718     0.03100
C221        C  0.22468895  0.03080941  0.62861750    -0.22300
C222        C  0.23955079  0.00221589  0.64438018     0.12300
S223        S  0.27775172  0.96762766  0.68734800    -0.05900
C224        C  0.24828563  0.94679210  0.65993075    -0.09400
C225        C  0.23015097  0.96844172  0.63833124    -0.26000
S226        S  0.21769568  0.10124538  0.62690820    -0.03200
C227        C  0.24405966  0.12296145  0.65658369    -0.16700
C228        C  0.26599246  0.10197012  0.67538730    -0.14600
H229        H  0.29533539  0.04213322  0.70206668     0.20700
H230        H  0.20448848  0.02765371  0.60901871     0.16800
H231        H  0.21019719  0.95998258  0.61994311     0.19300
H232        H  0.28355320  0.11107540  0.69580522     0.12600
C233        C  0.29933880  0.75904834  0.78825561     0.16500
C234        C  0.32061248  0.73784176  0.80834007    -0.32500
C235        C  0.31746596  0.74055522  0.84511323     0.20900
C236        C  0.29419538  0.76327845  0.86112787     0.03100
C237        C  0.27281223  0.78424676  0.84112572    -0.22300
C238        C  0.27602222  0.78162473  0.80447674     0.12300
S239        S  0.29945988  0.76041658  0.74328829    -0.05900
C240        C  0.26783752  0.79176921  0.74661428    -0.09400
C241        C  0.25791870  0.80035892  0.78077669    -0.26000
S242        S  0.29482999  0.76341010  0.90590303    -0.03200
C243        C  0.32700413  0.73242516  0.90342042    -0.16700
C244        C  0.33614886  0.72263361  0.86921343    -0.14600
H245        H  0.33899116  0.72023601  0.79588831     0.20700
H246        H  0.25467667  0.80209354  0.85359876     0.16800
H247        H  0.23858235  0.81958631  0.78793587     0.19300
H248        H  0.35585588  0.70366574  0.86243511     0.12600
C249        C  0.25714842  0.00788402  0.29499993     0.16500
C250        C  0.27188466  0.04127045  0.29222713    -0.32500
C251        C  0.24974323  0.06960406  0.29845745     0.20900
C252        C  0.21482614  0.06480302  0.30795061     0.03100
C253        C  0.20036237  0.03158906  0.31137534    -0.22300
C254        C  0.22214120  0.00340538  0.30422850     0.12300
S255        S  0.27835256  0.97000057  0.28536952    -0.05900
C256        C  0.23934302  0.94824130  0.29312958    -0.09400
C257        C  0.21188822  0.96936302  0.30338393    -0.26000
S258        S  0.19164297  0.10200351  0.31260074    -0.03200
C259        C  0.22913064  0.12454218  0.30120784    -0.16700
C260        C  0.25819533  0.10404188  0.29465561    -0.14600
H261        H  0.29900657  0.04499050  0.28432553     0.20700
H262        H  0.17291450  0.02787207  0.31805274     0.16800
H263        H  0.18539839  0.96035660  0.30878971     0.19300
H264        H  0.28377547  0.11372556  0.28668057     0.12600
C265        C  0.32696228  0.77124143  0.08275981     0.16500
C266        C  0.31630023  0.79772800  0.10594924    -0.32500
C267        C  0.30140251  0.78827603  0.13819937     0.20900
C268        C  0.29789069  0.75389584  0.14744334     0.03100
C269        C  0.30900070  0.72722163  0.12427194    -0.22300
C270        C  0.32340558  0.73670768  0.09153146     0.12300
S271        S  0.34218963  0.77790196  0.04123636    -0.05900
C272        C  0.34341448  0.73367717  0.03486252    -0.09400
C273        C  0.33330774  0.71485197  0.06411424    -0.26000
S274        S  0.27809472  0.74823333  0.18765836    -0.03200
C275        C  0.27424849  0.79261177  0.19165022    -0.16700
C276        C  0.28786736  0.81047767  0.16327071    -0.14600
H277        H  0.31849990  0.82461315  0.09866101     0.20700
H278        H  0.30565921  0.70030588  0.13105342     0.16800
H279        H  0.33112023  0.68691204  0.06450725     0.19300
H280        H  0.28752698  0.83834234  0.16090676     0.12600
C281        C  0.26374171  0.82684154  0.49804411     0.16500
C282        C  0.27682422  0.83501915  0.46451462    -0.32500
C283        C  0.25738722  0.82362032  0.43525785     0.20900
C284        C  0.22657101  0.80459325  0.43930329     0.03100
C285        C  0.21361510  0.79634161  0.47271001    -0.22300
C286        C  0.23276943  0.80804678  0.50187936     0.12300
S287        S  0.28196394  0.84013621  0.53696338    -0.05900
C288        C  0.24722625  0.82051935  0.55850025    -0.09400
C289        C  0.22323059  0.80427603  0.53642755    -0.26000
S290        S  0.20579549  0.79456082  0.40098861    -0.03200
C291        C  0.23864532  0.81652793  0.37904479    -0.16700
C292        C  0.26453307  0.83053317  0.40057808    -0.14600
H293        H  0.30060020  0.85031847  0.46140712     0.20700
H294        H  0.18915375  0.78213923  0.47585407     0.16800
H295        H  0.19925283  0.79163668  0.54514853     0.19300
H296        H  0.28651883  0.84610022  0.39151845     0.12600
C297        C  0.50318501  0.37025479  0.01597953     0.16500
C298        C  0.53461099  0.36909222  0.03479846    -0.32500
C299        C  0.56627713  0.37072180  0.01557072     0.20900
C300        C  0.56658555  0.37378598  0.97937341     0.03100
C301        C  0.53526521  0.37466315  0.96061919    -0.22300
C302        C  0.50369977  0.37259724  0.97970060     0.12300
S303        S  0.46190665  0.36893669  0.03407549    -0.05900
C304        C  0.44531056  0.37081748  0.99220252    -0.09400
C305        C  0.47068058  0.37267573  0.96593772    -0.26000
S306        S  0.60746394  0.37635019  0.96086418    -0.03200
C307        C  0.62470360  0.37270882  0.00219485    -0.16700
C308        C  0.59958035  0.36989565  0.02883875    -0.14600
H309        H  0.53439472  0.36700679  0.06311249     0.20700
H310        H  0.53548924  0.37683733  0.93231234     0.16800
H311        H  0.46525202  0.37439204  0.93818651     0.19300
H312        H  0.60526012  0.36799974  0.05650801     0.12600
C313        C  0.00866772  0.26615524  0.71605609     0.16500
C314        C  0.04209928  0.27868591  0.70677164    -0.32500
C315        C  0.07055470  0.25660647  0.71105789     0.20900
C316        C  0.06610623  0.22398470  0.72511168     0.03100
C317        C  0.03286309  0.21188761  0.73538198    -0.22300
C318        C  0.00429255  0.23347227  0.72997645     0.12300
S319        S  0.97030948  0.28662312  0.70774467    -0.05900
C320        C  0.94825986  0.25035262  0.72225764    -0.09400
C321        C  0.96968846  0.22448424  0.73404800    -0.26000
S322        S  0.10335067  0.20009196  0.72568661    -0.03200
C323        C  0.12508402  0.23421590  0.70635733    -0.16700
C324        C  0.10448698  0.26270600  0.70040385    -0.14600
H325        H  0.04553527  0.30375740  0.69492471     0.20700
H326        H  0.02918688  0.18603790  0.74536690     0.16800
H327        H  0.96047989  0.19939216  0.74268296     0.19300
H328        H  0.11360031  0.28614619  0.68791827     0.12600
C329        C  0.76914307  0.28105810  0.84676406     0.16500
C330        C  0.75741607  0.28051262  0.88173903    -0.32500
C331        C  0.74641164  0.31171783  0.89731985     0.20900
C332        C  0.74649086  0.34223570  0.87884341     0.03100
C333        C  0.75836198  0.34282295  0.84364514    -0.22300
C334        C  0.76984211  0.31149490  0.82808491     0.12300
S335        S  0.78445766  0.24587917  0.82398847    -0.05900
C336        C  0.79231205  0.27211731  0.78866263    -0.09400
C337        C  0.78319807  0.30652034  0.79451931    -0.26000
S338        S  0.73222848  0.37729797  0.90320921    -0.03200
C339        C  0.72710858  0.35057772  0.93877032    -0.16700
C340        C  0.73546206  0.31632661  0.93148340    -0.14600
H341        H  0.75734585  0.25678344  0.89638746     0.20700
H342        H  0.75899517  0.36666236  0.82919192     0.16800
H343        H  0.78671630  0.32680722  0.77555012     0.19300
H344        H  0.73398729  0.29579993  0.95041004     0.12600
C345        C  0.00552075  0.27318740  0.29853860     0.16500
C346        C  0.04007435  0.28500607  0.30348210    -0.32500
C347        C  0.06704147  0.26635412  0.28672904     0.20900
C348        C  0.05990795  0.23751828  0.26563661     0.03100
C349        C  0.02541348  0.22587614  0.26050813    -0.22300
C350        C  0.99855660  0.24418327  0.27764326     0.12300
S351        S  0.96911266  0.29106578  0.31780242    -0.05900
C352        C  0.94448781  0.25879551  0.29778391    -0.09400
C353        C  0.96362646  0.23580710  0.27715871    -0.26000
S354        S  0.09621543  0.21709905  0.24948372    -0.03200
C355        C  0.12138407  0.24736592  0.27181982    -0.16700
C356        C  0.10236803  0.27228169  0.29017118    -0.14600
H357        H  0.04575211  0.30721832  0.32032597     0.20700
H358        H  0.01981275  0.20297340  0.24461657     0.16800
H359        H  0.95259416  0.21375012  0.26298541     0.19300
H360        H  0.11376022  0.29250909  0.30666237     0.12600
C361        C  0.75875587  0.32341397  0.18762809     0.16500
C362        C  0.73685215  0.34368897  0.16709398    -0.32500
C363        C  0.74214047  0.34271028  0.13043049     0.20900
C364        C  0.76810039  0.32255236  0.11509279     0.03100
C365        C  0.79019837  0.30275530  0.13553153    -0.22300
C366        C  0.78483522  0.30359557  0.17197807     0.12300
S367        S  0.75640022  0.32003077  0.23246286    -0.05900
C368        C  0.79100788  0.29178995  0.22982178    -0.09400
C369        C  0.80336242  0.28555324  0.19594685    -0.26000
S370        S  0.76968107  0.32361505  0.07043486    -0.03200
C371        C  0.73470849  0.35157007  0.07178842    -0.16700
C372        C  0.72316619  0.35976745  0.10573805    -0.14600
H373        H  0.71637107  0.35918730  0.17909716     0.20700
H374        H  0.81044908  0.28698287  0.12347868     0.16800
H375        H  0.82484172  0.26855235  0.18915812     0.19300
H376        H  0.70155750  0.37679792  0.11189879     0.12600
C377        C  0.80109537  0.25020585  0.53789564     0.16500
C378        C  0.78880293  0.24165144  0.50421415    -0.32500
C379        C  0.80483544  0.25801314  0.47551661     0.20900
C380        C  0.83148789  0.28235946  0.48013333     0.03100
C381        C  0.84370085  0.29103948  0.51385907    -0.22300
C382        C  0.82814150  0.27412097  0.54252790     0.12300
S383        S  0.78670119  0.23143489  0.57578465    -0.05900
C384        C  0.81786349  0.25551993  0.59813215    -0.09400
C385        C  0.83795418  0.27720374  0.57706308    -0.26000
S386        S  0.84891690  0.29765010  0.44178010    -0.03200
C387        C  0.82056646  0.27034996  0.41928878    -0.16700
C388        C  0.79838400  0.25111238  0.44068110    -0.14600
H389        H  0.76836438  0.22226947  0.50045506     0.20700
H390        H  0.86515176  0.30933816  0.51749600     0.16800
H391        H  0.85939416  0.29345289  0.58634590     0.19300
H392        H  0.77978401  0.23176290  0.43126054     0.12600
C393        C  0.50006014  0.72781957  0.96188084     0.16500
C394        C  0.53343033  0.74142800  0.95470447    -0.32500
C395        C  0.56212394  0.72539231  0.96963582     0.20900
C396        C  0.55799313  0.69709322  0.99110808     0.03100
C397        C  0.52428924  0.68347028  0.99855839    -0.22300
C398        C  0.49534227  0.69951895  0.98330116     0.12300
S399        S  0.46261231  0.74333833  0.94488129    -0.05900
C400        C  0.43953052  0.71137039  0.96650811    -0.09400
C401        C  0.46041046  0.68999686  0.98628460    -0.26000
S402        S  0.59691068  0.68098553  0.00538525    -0.03200
C403        C  0.61872093  0.71245242  0.98159505    -0.16700
C404        C  0.59653456  0.73439576  0.96430899    -0.14600
H405        H  0.53693000  0.76333295  0.93765384     0.20700
H406        H  0.52084288  0.66113939  0.01502153     0.16800
H407        H  0.45078442  0.66825907  0.00124281     0.19300
H408        H  0.60500398  0.75561936  0.94800833     0.12600
C409        C  0.69196746  0.57438629  0.00728088     0.16500
C410        C  0.68375974  0.54321567  0.02404222    -0.32500
C411        C  0.69645600  0.51242925  0.00863460     0.20900
C412        C  0.71581713  0.51259353  0.97757764     0.03100
C413        C  0.72404537  0.54371689  0.96096406    -0.22300
C414        C  0.71188515  0.57447617  0.97666590     0.12300
S415        S  0.67958507  0.61465920  0.02166057    -0.05900
C416        C  0.70184843  0.63197522  0.98620370    -0.09400
C417        C  0.71772411  0.60718828  0.96457602    -0.26000
S418        S  0.72844480  0.47258022  0.96274874    -0.03200
C419        C  0.70825943  0.45553957  0.99921301    -0.16700
C420        C  0.69224405  0.47963492  0.02133657    -0.14600
H421        H  0.66844713  0.54298953  0.04815742     0.20700
H422        H  0.73948337  0.54397685  0.93692605     0.16800
H423        H  0.73276752  0.61237909  0.94099849     0.19300
H424        H  0.67823299  0.47339196  0.04533165     0.12600
C425        C  0.99887714  0.80790418  0.67209894     0.16500
C426        C  0.03235100  0.79491732  0.66435543    -0.32500
C427        C  0.06149332  0.81456211  0.67568832     0.20900
C428        C  0.05741721  0.84531374  0.69458620     0.03100
C429        C  0.02404256  0.85789347  0.70291919    -0.22300
C430        C  0.99500746  0.83874700  0.69085842     0.12300
S431        S  0.96021740  0.78981250  0.65797752    -0.05900
C432        C  0.93885606  0.82457717  0.67695149    -0.09400
C433        C  0.96066996  0.84832056  0.69387432    -0.26000
S434        S  0.09569479  0.86665219  0.70387392    -0.03200
C435        C  0.11758040  0.83411290  0.68170197    -0.16700
C436        C  0.09613099  0.80781742  0.66844296    -0.14600
H437        H  0.03554828  0.77125118  0.64904832     0.20700
H438        H  0.02085997  0.88227394  0.71700648     0.16800
H439        H  0.95196252  0.87200679  0.70666375     0.19300
H440        H  0.10526652  0.78575260  0.65314206     0.12600
C441        C  0.80830284  0.00821850  0.68049695     0.16500
C442        C  0.79588630  0.04111708  0.69039788    -0.32500
C443        C  0.81774971  0.06991789  0.68380830     0.20900
C444        C  0.85035698  0.06607565  0.66783535     0.03100
C445        C  0.86260706  0.03331250  0.65773106    -0.22300
C446        C  0.84091031  0.00459409  0.66449801     0.12300
S447        S  0.78670448  0.96978369  0.68754105    -0.05900
C448        C  0.82208965  0.94874911  0.66884636    -0.09400
C449        C  0.84883501  0.97063900  0.65757521    -0.26000
S450        S  0.87331954  0.10386319  0.66268045    -0.03200
C451        C  0.83877836  0.12531223  0.68232674    -0.16700
C452        C  0.81091783  0.10397700  0.69219353    -0.14600
H453        H  0.77054781  0.04408605  0.70312098     0.20700
H454        H  0.88818843  0.03029041  0.64551827     0.16800
H455        H  0.87325605  0.96208972  0.64573887     0.19300
H456        H  0.78714303  0.11286211  0.70506570     0.12600
C457        C  0.76340079  0.76439415  0.86712409     0.16500
C458        C  0.78561566  0.78399473  0.84559316    -0.32500
C459        C  0.78005734  0.78228999  0.80932452     0.20900
C460        C  0.75375783  0.76172092  0.79476879     0.03100
C461        C  0.73177968  0.74149175  0.81639782    -0.22300
C462        C  0.73720212  0.74346164  0.85295207     0.12300
S463        S  0.76502943  0.76467021  0.91183538    -0.05900
C464        C  0.72978071  0.73621256  0.91212971    -0.09400
C465        C  0.71810625  0.72686116  0.87864887    -0.26000
S466        S  0.75107545  0.76457485  0.74989754    -0.03200
C467        C  0.78572751  0.79377328  0.75119452    -0.16700
C468        C  0.79842351  0.80046639  0.78459792    -0.14600
H469        H  0.80601051  0.80043775  0.85672119     0.20700
H470        H  0.71105379  0.72544242  0.80532884     0.16800
H471        H  0.69631009  0.70933093  0.87351594     0.19300
H472        H  0.81992466  0.81811066  0.79058622     0.12600
C473        C  0.99745039  0.81856731  0.27420762     0.16500
C474        C  0.03041911  0.80484646  0.28141012    -0.32500
C475        C  0.06013488  0.82211216  0.26795546     0.20900
C476        C  0.05711193  0.85144806  0.24788108     0.03100
C477        C  0.02419717  0.86502574  0.24055741    -0.22300
C478        C  0.99455949  0.84804290  0.25432313     0.12300
S479        S  0.95830393  0.80269036  0.28965139    -0.05900
C480        C  0.93796793  0.83635841  0.26941126    -0.09400
C481        C  0.96049586  0.85831146  0.25140257    -0.26000
S482        S  0.09617355  0.86948264  0.23510457    -0.03200
C483        C  0.11694719  0.83741699  0.25727944    -0.16700
C484        C  0.09451137  0.81389536  0.27343965    -0.14600
H485        H  0.03283506  0.78217424  0.29740995     0.20700
H486        H  0.02183032  0.88827133  0.22540270     0.16800
H487        H  0.95247896  0.88117426  0.23777947     0.19300
H488        H  0.10290052  0.79260398  0.28923447     0.12600
C489        C  0.84411546  0.02168221  0.32157666     0.16500
C490        C  0.85724590  0.05439239  0.33148843    -0.32500
C491        C  0.83750499  0.08327918  0.32289281     0.20900
C492        C  0.80579998  0.07986391  0.30563871     0.03100
C493        C  0.79240622  0.04705798  0.29613011    -0.22300
C494        C  0.81242696  0.01812976  0.30429521     0.12300
S495        S  0.86526158  0.98368474  0.32770719    -0.05900
C496        C  0.83122542  0.96270215  0.30653095    -0.09400
C497        C  0.80477881  0.98422720  0.29575495    -0.26000
S498        S  0.78674761  0.11835823  0.29621751    -0.03200
C499        C  0.82207917  0.13912892  0.31543953    -0.16700
C500        C  0.84687946  0.11718646  0.32870916    -0.14600
H501        H  0.88220325  0.05725807  0.34456441     0.20700
H502        H  0.76790118  0.04425129  0.28223242     0.16800
H503        H  0.78165314  0.97562159  0.28167538     0.19300
H504        H  0.87100017  0.12562341  0.34113894     0.12600
C505        C  0.76269821  0.80898860  0.13721884     0.16500
C506        C  0.75254856  0.80923984  0.10197560    -0.32500
C507        C  0.74092203  0.77795858  0.08656824     0.20900
C508        C  0.73895698  0.74771318  0.10545341     0.03100
C509        C  0.74921238  0.74743719  0.14085794    -0.22300
C510        C  0.76125319  0.77877121  0.15623955     0.12300
S511        S  0.77862594  0.84414952  0.15997401    -0.05900
C512        C  0.78388559  0.81804944  0.19561269    -0.09400
C513        C  0.77335413  0.78383948  0.18995394    -0.26000
S514        S  0.72410052  0.71252942  0.08146448    -0.03200
C515        C  0.72121526  0.73877726  0.04549889    -0.16700
C516        C  0.73096734  0.77299623  0.05232976    -0.14600
H517        H  0.75408463  0.83277122  0.08703688     0.20700
H518        H  0.74819353  0.72379952  0.15563473     0.16800
H519        H  0.77516589  0.76367808  0.20915908     0.19300
H520        H  0.73092547  0.79329019  0.03313306     0.12600
C521        C  0.80903051  0.80210665  0.50147220     0.16500
C522        C  0.81675255  0.79065586  0.46709185    -0.32500
C523        C  0.80366390  0.80987004  0.43933745     0.20900
C524        C  0.78261892  0.83837700  0.44548913     0.03100
C525        C  0.77426407  0.84935525  0.47984067    -0.22300
C526        C  0.78843809  0.83093834  0.50758184     0.12300
S527        S  0.82640869  0.78535044  0.53857067    -0.05900
C528        C  0.80635305  0.81799218  0.56246413    -0.09400
C529        C  0.78659192  0.83999421  0.54254759    -0.26000
S530        S  0.77209311  0.86014933  0.40854450    -0.03200
C531        C  0.79732265  0.83132199  0.38466243    -0.16700
C532        C  0.81208310  0.80562158  0.40440559    -0.14600
H533        H  0.83387434  0.76893095  0.46220307     0.20700
H534        H  0.75899577  0.87239958  0.48472867     0.16800
H535        H  0.77328062  0.86264815  0.55285486     0.19300
H536        H  0.82987232  0.78623942  0.39406999     0.12600
loop_ 
_geom_bond_atom_site_label_1 
_geom_bond_atom_site_label_2 
_geom_bond_distance 
_geom_bond_site_symmetry_2 
_ccdc_geom_bond_type 
In1           O3   2.252       .  S
In1           O4   2.253       .  S
In1          O12   2.251       .  S
In1           O6   2.285       .  S
In1           O8   2.259       .  S
In1           O9   2.248       .  S
In1          O10   2.251       .  S
In1          O13   2.255       .  S
C2            O8   1.259       .  A
C2           O10   1.258       .  A
C2          C531   1.471       .  S
O3           C11   1.259       .  A
O4           C11   1.261       .  A
C5           O12   1.256       .  A
C5            O6   1.259       .  A
C5          C512   1.478       .  S
C7            O9   1.261       .  A
C7           O13   1.262       .  A
C7          C496   1.472       .  S
C11         C480   1.471       .  S
In14         O16   2.265       .  S
In14         O17   2.243       .  S
In14         O25   2.237       .  S
In14         O19   2.294       .  S
In14         O21   2.256       .  S
In14         O22   2.243       .  S
In14         O23   2.263       .  S
In14         O26   2.265       .  S
C15          O21   1.259       .  A
C15          O23   1.259       .  A
C15         C528   1.474       .  S
O16          C24   1.264       .  A
O17          C24   1.262       .  A
C18          O25   1.255       .  A
C18          O19   1.260       .  A
C18         C467   1.477       .  S
C20          O22   1.259       .  A
C20          O26   1.261       .  A
C20         C432   1.472       .  S
C24         C448   1.476       .  S
C27          C28   1.532       .  S
C27          C33   1.537       .  S
C27          C31   1.533       .  S
C27         C464   1.523       .  S
C28          H35   1.083       .  S
C28          C29   1.371       .  D
C29          C30   1.546   1_556  S
C29         C416   1.493       .  S
C30          C34   1.548       .  S
C30          C32   1.545   1_554  S
C30          H36   1.109       .  S
C31          H37   1.085       .  S
C31          C32   1.371       .  D
C32         C403   1.489       .  S
C33          H38   1.084       .  S
C33          C34   1.366   1_556  D
C34         C515   1.490       .  S
In39         O41   2.260       .  S
In39         O42   2.236       .  S
In39         O50   2.240       .  S
In39         O44   2.290       .  S
In39         O46   2.259       .  S
In39         O47   2.234       .  S
In39         O48   2.256       .  S
In39         O51   2.260       .  S
C40          O46   1.260       .  A
C40          O48   1.260       .  A
C40         C387   1.474       .  S
O41          C49   1.263       .  A
O42          C49   1.260       .  A
C43          O50   1.254       .  A
C43          O44   1.261       .  A
C43         C368   1.477       .  S
C45          O47   1.259       .  A
C45          O51   1.262       .  A
C45         C352   1.469       .  S
C49         C499   1.471       .  S
In52         O54   2.257       .  S
In52         O55   2.245       .  S
In52         O63   2.247       .  S
In52         O57   2.292       .  S
In52         O59   2.257       .  S
In52         O60   2.245       .  S
In52         O61   2.266       .  S
In52         O64   2.264       .  S
C53          O59   1.258       .  A
C53          O61   1.260       .  A
C53         C384   1.476       .  S
O54          C62   1.260       .  A
O55          C62   1.259       .  A
C56          O63   1.256       .  A
C56          O57   1.260       .  A
C56         C336   1.480       .  S
C58          O60   1.261       .  A
C58          O64   1.264       .  A
C58         C451   1.476       .  S
C62         C320   1.470       .  S
C65          C66   1.536       .  S
C65          C71   1.542       .  S
C65          C69   1.537       .  S
C65         C371   1.523       .  S
C66          H73   1.086       .  S
C66          C67   1.365       .  D
C67          C68   1.538   1_554  S
C67         C419   1.474   1_554  S
C68          C72   1.540       .  S
C68          C70   1.547   1_556  S
C68          H74   1.110       .  S
C69          H75   1.085       .  S
C69          C70   1.371       .  D
C70         C307   1.486       .  S
C71          H76   1.084       .  S
C71          C72   1.365   1_554  D
C72         C339   1.489       .  S
In77         O79   2.269       .  S
In77         O80   2.237       .  S
In77         O88   2.286       .  S
In77         O82   2.265       .  S
In77         O84   2.274       .  S
In77         O85   2.253       .  S
In77         O86   2.237       .  S
In77         O89   2.253       .  S
C78          O84   1.261       .  A
C78          O86   1.257       .  A
C78         C291   1.473       .  S
O79          C87   1.263       .  A
O80          C87   1.260       .  A
C81          O88   1.258       .  A
C81          O82   1.256       .  A
C81         C275   1.481       .  S
C83          O85   1.261       .  A
C83          O89   1.259       .  A
C83         C483   1.471       .  S
C87         C256   1.474       .  S
In90         O92   2.263       .  S
In90         O93   2.237       .  S
In90        O101   2.232       .  S
In90         O95   2.282       .  S
In90         O97   2.260       .  S
In90         O98   2.229       .  S
In90         O99   2.250       .  S
In90        O102   2.261       .  S
C91          O97   1.261       .  A
C91          O99   1.261       .  A
C91         C288   1.475       .  S
O92         C100   1.263       .  A
O93         C100   1.259       .  A
C94         O101   1.255       .  A
C94          O95   1.262       .  A
C94         C240   1.473       .  S
C96          O98   1.260       .  A
C96         O102   1.261       .  A
C96         C224   1.469       .  S
C100        C435   1.471       .  S
C103        C104   1.529       .  S
C103        C109   1.533       .  S
C103        C107   1.526       .  S
C103        C243   1.519       .  S
C104        H111   1.086       .  S
C104        C105   1.369       .  D
C105        C106   1.550       .  S
C105        C400   1.489       .  S
C106        C110   1.549       .  S
C106        C108   1.551       .  S
C106        H112   1.109   1_556  S
C107        H113   1.086       .  S
C107        C108   1.369       .  D
C108        C211   1.488       .  S
C109        H114   1.085       .  S
C109        C110   1.366       .  D
C110        C272   1.484   1_556  S
In115       O117   2.253       .  S
In115       O118   2.247       .  S
In115       O126   2.233       .  S
In115       O120   2.301       .  S
In115       O122   2.257       .  S
In115       O123   2.239       .  S
In115       O124   2.260       .  S
In115       O127   2.265       .  S
C116        O122   1.258       .  A
C116        O124   1.260       .  A
C116        C192   1.475       .  S
O117        C125   1.261       .  A
O118        C125   1.260       .  A
C119        O126   1.254       .  A
C119        O120   1.260       .  A
C119        C176   1.477       .  S
C121        O123   1.260       .  A
C121        O127   1.262       .  A
C121        C259   1.472       .  S
C125        C355   1.470       .  S
In128       O130   2.268       .  S
In128       O131   2.230       .  S
In128       O139   2.253       .  S
In128       O133   2.290       .  S
In128       O135   2.250       .  S
In128       O136   2.244       .  S
In128       O137   2.269       .  S
In128       O140   2.256       .  S
C129        O135   1.261       .  A
C129        O137   1.263       .  A
C129        C195   1.479       .  S
O130        C138   1.264       .  A
O131        C138   1.259       .  A
C132        O139   1.256       .  A
C132        O133   1.261       .  A
C132        C160   1.482       .  S
C134        O136   1.258       .  A
C134        O140   1.261       .  A
C134        C323   1.469       .  S
C138        C227   1.470       .  S
C141        C142   1.531       .  S
C141        C147   1.539       .  S
C141        C145   1.537       .  S
C141        C163   1.528       .  S
C142        H149   1.085       .  S
C142        C143   1.370       .  D
C143        C144   1.544   1_556  S
C143        C208   1.487       .  S
C144        C148   1.541       .  S
C144        C146   1.541   1_554  S
C144        H150   1.110       .  S
C145        H151   1.086       .  S
C145        C146   1.371       .  D
C146        C304   1.482       .  S
C147        H152   1.084       .  S
C147        C148   1.369   1_556  D
C148        C179   1.489       .  S
C153        S159   1.717       .  A
C153        C158   1.386       .  A
C153        C154   1.409       .  A
C154        C155   1.409       .  A
C154        H165   1.083       .  S
C155        C164   1.379       .  A
C155        C156   1.385       .  A
C156        S162   1.707       .  A
C156        C157   1.403       .  A
C157        C158   1.403       .  A
C157        H166   1.083       .  S
C158        C161   1.373       .  A
S159        C160   1.726       .  A
C160        C161   1.389       .  A
C161        H167   1.083       .  S
S162        C163   1.729       .  A
C163        C164   1.395       .  A
C164        H168   1.083       .  S
C169        S175   1.699       .  A
C169        C174   1.387       .  A
C169        C170   1.396       .  A
C170        C171   1.397       .  A
C170        H181   1.083       .  S
C171        C180   1.366       .  A
C171        C172   1.385       .  A
C172        S178   1.720       .  A
C172        C173   1.412       .  A
C173        C174   1.413       .  A
C173        H182   1.083       .  S
C174        C177   1.383       .  A
S175        C176   1.719       .  A
C176        C177   1.394       .  A
C177        H183   1.083       .  S
S178        C179   1.730       .  A
C179        C180   1.386       .  A
C180        H184   1.083       .  S
C185        S191   1.710       .  A
C185        C190   1.387       .  A
C185        C186   1.404       .  A
C186        C187   1.405       .  A
C186        H197   1.083       .  S
C187        C196   1.376       .  A
C187        C188   1.387       .  A
C188        S194   1.709       .  A
C188        C189   1.405       .  A
C189        C190   1.405       .  A
C189        H198   1.083       .  S
C190        C193   1.375       .  A
S191        C192   1.723       .  A
C192        C193   1.389       .  A
C193        H199   1.083       .  S
S194        C195   1.725       .  A
C195        C196   1.389       .  A
C196        H200   1.083       .  S
C201        S207   1.715   1_556  A
C201        C206   1.385       .  A
C201        C202   1.409   1_556  A
C202        C203   1.409   1_554  A
C202        H213   1.083       .  S
C203        C212   1.380       .  A
C203        C204   1.386       .  A
C204        S210   1.698       .  A
C204        C205   1.397       .  A
C205        C206   1.398       .  A
C205        H214   1.083       .  S
C206        C209   1.366       .  A
S207        C208   1.728   1_554  A
C208        C209   1.387       .  A
C209        H215   1.082       .  S
S210        C211   1.726       .  A
C211        C212   1.392       .  A
C212        H216   1.082   1_556  S
C217        S223   1.713   1_545  A
C217        C222   1.387       .  A
C217        C218   1.405       .  A
C218        C219   1.406       .  A
C218        H229   1.083       .  S
C219        C228   1.375       .  A
C219        C220   1.388       .  A
C220        S226   1.702       .  A
C220        C221   1.397       .  A
C221        C222   1.398       .  A
C221        H230   1.083       .  S
C222        C225   1.365   1_545  A
S223        C224   1.724       .  A
C224        C225   1.383       .  A
C225        H231   1.083       .  S
S226        C227   1.721       .  A
C227        C228   1.388       .  A
C228        H232   1.083       .  S
C233        S239   1.714       .  A
C233        C238   1.386       .  A
C233        C234   1.405       .  A
C234        C235   1.406       .  A
C234        H245   1.083       .  S
C235        C244   1.373       .  A
C235        C236   1.385       .  A
C236        S242   1.706       .  A
C236        C237   1.400       .  A
C237        C238   1.402       .  A
C237        H246   1.083       .  S
C238        C241   1.367       .  A
S239        C240   1.724       .  A
C240        C241   1.386       .  A
C241        H247   1.083       .  S
S242        C243   1.727       .  A
C243        C244   1.391       .  A
C244        H248   1.083       .  S
C249        S255   1.714   1_545  A
C249        C254   1.387       .  A
C249        C250   1.406       .  A
C250        C251   1.407       .  A
C250        H261   1.083       .  S
C251        C260   1.376       .  A
C251        C252   1.387       .  A
C252        S258   1.704       .  A
C252        C253   1.399       .  A
C253        C254   1.400       .  A
C253        H262   1.083       .  S
C254        C257   1.368   1_545  A
S255        C256   1.725       .  A
C256        C257   1.385       .  A
C257        H263   1.083       .  S
S258        C259   1.720       .  A
C259        C260   1.389       .  A
C260        H264   1.083       .  S
C265        S271   1.702       .  A
C265        C270   1.387       .  A
C265        C266   1.401       .  A
C266        C267   1.400       .  A
C266        H277   1.083       .  S
C267        C276   1.372       .  A
C267        C268   1.386       .  A
C268        S274   1.716       .  A
C268        C269   1.410       .  A
C269        C270   1.410       .  A
C269        H278   1.083       .  S
C270        C273   1.383       .  A
S271        C272   1.724       .  A
C272        C273   1.391       .  A
C273        H279   1.083       .  S
S274        C275   1.728       .  A
C275        C276   1.386       .  A
C276        H280   1.083       .  S
C281        S287   1.711       .  A
C281        C286   1.387       .  A
C281        C282   1.406       .  A
C282        C283   1.406       .  A
C282        H293   1.083       .  S
C283        C292   1.376       .  A
C283        C284   1.387       .  A
C284        S290   1.704       .  A
C284        C285   1.401       .  A
C285        C286   1.401       .  A
C285        H294   1.083       .  S
C286        C289   1.371       .  A
S287        C288   1.725       .  A
C288        C289   1.386       .  A
C289        H295   1.083       .  S
S290        C291   1.722       .  A
C291        C292   1.389       .  A
C292        H296   1.083       .  S
C297        S303   1.712       .  A
C297        C302   1.386   1_554  A
C297        C298   1.406       .  A
C298        C299   1.407       .  A
C298        H309   1.083       .  S
C299        C308   1.374       .  A
C299        C300   1.386   1_554  A
C300        S306   1.706       .  A
C300        C301   1.400       .  A
C301        C302   1.401       .  A
C301        H310   1.083       .  S
C302        C305   1.370       .  A
S303        C304   1.726   1_554  A
C304        C305   1.386       .  A
C305        H311   1.083       .  S
S306        C307   1.722   1_556  A
C307        C308   1.393       .  A
C308        H312   1.082       .  S
C313        S319   1.709   1_455  A
C313        C318   1.387       .  A
C313        C314   1.402       .  A
C314        C315   1.403       .  A
C314        H325   1.083       .  S
C315        C324   1.371       .  A
C315        C316   1.387       .  A
C316        S322   1.706       .  A
C316        C317   1.400       .  A
C317        C318   1.401       .  A
C317        H326   1.083       .  S
C318        C321   1.368   1_455  A
S319        C320   1.723       .  A
C320        C321   1.385       .  A
C321        H327   1.083       .  S
S322        C323   1.722       .  A
C323        C324   1.386       .  A
C324        H328   1.083       .  S
C329        S335   1.705       .  A
C329        C334   1.387       .  A
C329        C330   1.401       .  A
C330        C331   1.401       .  A
C330        H341   1.083       .  S
C331        C340   1.371       .  A
C331        C332   1.386       .  A
C332        S338   1.719       .  A
C332        C333   1.410       .  A
C333        C334   1.411       .  A
C333        H342   1.083       .  S
C334        C337   1.382       .  A
S335        C336   1.722       .  A
C336        C337   1.392       .  A
C337        H343   1.083       .  S
S338        C339   1.727       .  A
C339        C340   1.388       .  A
C340        H344   1.083       .  S
C345        S351   1.711   1_455  A
C345        C350   1.387   1_455  A
C345        C346   1.403       .  A
C346        C347   1.404       .  A
C346        H357   1.083       .  S
C347        C356   1.371       .  A
C347        C348   1.387       .  A
C348        S354   1.706       .  A
C348        C349   1.400       .  A
C349        C350   1.401   1_455  A
C349        H358   1.083       .  S
C350        C353   1.367       .  A
S351        C352   1.723       .  A
C352        C353   1.385       .  A
C353        H359   1.083       .  S
S354        C355   1.722       .  A
C355        C356   1.387       .  A
C356        H360   1.083       .  S
C361        S367   1.716       .  A
C361        C366   1.386       .  A
C361        C362   1.408       .  A
C362        C363   1.408       .  A
C362        H373   1.083       .  S
C363        C372   1.377       .  A
C363        C364   1.385       .  A
C364        S370   1.702       .  A
C364        C365   1.400       .  A
C365        C366   1.400       .  A
C365        H374   1.083       .  S
C366        C369   1.369       .  A
S367        C368   1.725       .  A
C368        C369   1.386       .  A
C369        H375   1.083       .  S
S370        C371   1.728       .  A
C371        C372   1.393       .  A
C372        H376   1.083       .  S
C377        S383   1.709       .  A
C377        C382   1.387       .  A
C377        C378   1.403       .  A
C378        C379   1.404       .  A
C378        H389   1.083       .  S
C379        C388   1.373       .  A
C379        C380   1.387       .  A
C380        S386   1.711       .  A
C380        C381   1.404       .  A
C381        C382   1.405       .  A
C381        H390   1.083       .  S
C382        C385   1.374       .  A
S383        C384   1.723       .  A
C384        C385   1.389       .  A
C385        H391   1.083       .  S
S386        C387   1.724       .  A
C387        C388   1.387       .  A
C388        H392   1.083       .  S
C393        S399   1.697       .  A
C393        C398   1.386       .  A
C393        C394   1.397       .  A
C394        C395   1.397       .  A
C394        H405   1.083       .  S
C395        C404   1.368       .  A
C395        C396   1.385       .  A
C396        S402   1.716   1_556  A
C396        C397   1.411       .  A
C397        C398   1.411       .  A
C397        H406   1.083   1_556  S
C398        C401   1.382       .  A
S399        C400   1.725       .  A
C400        C401   1.393       .  A
C401        H407   1.082   1_556  S
S402        C403   1.730   1_554  A
C403        C404   1.387       .  A
C404        H408   1.082       .  S
C409        S415   1.711       .  A
C409        C414   1.384   1_554  A
C409        C410   1.405       .  A
C410        C411   1.406       .  A
C410        H421   1.083       .  S
C411        C420   1.373       .  A
C411        C412   1.387   1_554  A
C412        S418   1.710       .  A
C412        C413   1.401       .  A
C413        C414   1.403       .  A
C413        H422   1.083       .  S
C414        C417   1.369       .  A
S415        C416   1.728   1_554  A
C416        C417   1.392       .  A
C417        H423   1.081       .  S
S418        C419   1.718       .  A
C419        C420   1.387   1_556  A
C420        H424   1.083       .  S
C425        S431   1.712       .  A
C425        C430   1.387       .  A
C425        C426   1.405   1_655  A
C426        C427   1.405       .  A
C426        H437   1.083       .  S
C427        C436   1.374       .  A
C427        C428   1.387       .  A
C428        S434   1.705       .  A
C428        C429   1.400       .  A
C429        C430   1.401   1_455  A
C429        H438   1.083       .  S
C430        C433   1.369       .  A
S431        C432   1.724       .  A
C432        C433   1.385       .  A
C433        H439   1.083       .  S
S434        C435   1.721       .  A
C435        C436   1.388       .  A
C436        H440   1.083       .  S
C441        S447   1.714   1_545  A
C441        C446   1.386       .  A
C441        C442   1.406       .  A
C442        C443   1.407       .  A
C442        H453   1.083       .  S
C443        C452   1.377       .  A
C443        C444   1.387       .  A
C444        S450   1.707       .  A
C444        C445   1.401       .  A
C445        C446   1.402       .  A
C445        H454   1.083       .  S
C446        C449   1.371   1_545  A
S447        C448   1.725       .  A
C448        C449   1.387       .  A
C449        H455   1.083       .  S
S450        C451   1.722       .  A
C451        C452   1.389       .  A
C452        H456   1.083       .  S
C457        S463   1.704       .  A
C457        C462   1.385       .  A
C457        C458   1.399       .  A
C458        C459   1.400       .  A
C458        H469   1.083       .  S
C459        C468   1.367       .  A
C459        C460   1.386       .  A
C460        S466   1.719       .  A
C460        C461   1.409       .  A
C461        C462   1.410       .  A
C461        H470   1.083       .  S
C462        C465   1.377       .  A
S463        C464   1.726       .  A
C464        C465   1.395       .  A
C465        H471   1.083       .  S
S466        C467   1.727       .  A
C467        C468   1.385       .  A
C468        H472   1.083       .  S
C473        S479   1.709       .  A
C473        C478   1.387       .  A
C473        C474   1.404   1_655  A
C474        C475   1.405       .  A
C474        H485   1.083       .  S
C475        C484   1.373       .  A
C475        C476   1.387       .  A
C476        S482   1.707       .  A
C476        C477   1.401       .  A
C477        C478   1.401   1_455  A
C477        H486   1.083       .  S
C478        C481   1.370       .  A
S479        C480   1.724       .  A
C480        C481   1.385       .  A
C481        H487   1.083       .  S
S482        C483   1.721       .  A
C483        C484   1.388       .  A
C484        H488   1.083       .  S
C489        S495   1.707   1_545  A
C489        C494   1.387       .  A
C489        C490   1.401       .  A
C490        C491   1.402       .  A
C490        H501   1.083       .  S
C491        C500   1.369       .  A
C491        C492   1.387       .  A
C492        S498   1.711       .  A
C492        C493   1.404       .  A
C493        C494   1.405       .  A
C493        H502   1.083       .  S
C494        C497   1.373   1_545  A
S495        C496   1.722       .  A
C496        C497   1.387       .  A
C497        H503   1.083       .  S
S498        C499   1.723       .  A
C499        C500   1.386       .  A
C500        H504   1.083       .  S
C505        S511   1.706       .  A
C505        C510   1.387       .  A
C505        C506   1.402       .  A
C506        C507   1.403       .  A
C506        H517   1.083       .  S
C507        C516   1.372       .  A
C507        C508   1.386       .  A
C508        S514   1.717       .  A
C508        C509   1.409       .  A
C509        C510   1.409       .  A
C509        H518   1.083       .  S
C510        C513   1.379       .  A
S511        C512   1.722       .  A
C512        C513   1.391       .  A
C513        H519   1.083       .  S
S514        C515   1.726       .  A
C515        C516   1.390       .  A
C516        H520   1.083       .  S
C521        S527   1.710       .  A
C521        C526   1.387       .  A
C521        C522   1.403       .  A
C522        C523   1.404       .  A
C522        H533   1.083       .  S
C523        C532   1.372       .  A
C523        C524   1.387       .  A
C524        S530   1.708       .  A
C524        C525   1.402       .  A
C525        C526   1.403       .  A
C525        H534   1.083       .  S
C526        C529   1.372       .  A
S527        C528   1.724       .  A
C528        C529   1.387       .  A
C529        H535   1.083       .  S
S530        C531   1.722       .  A
C531        C532   1.387       .  A
C532        H536   1.083       .  S
