geometry optimzed in LAMMPS
_audit_creation_date              2020-11-30 
_audit_creation_method            'lammps2cif' 
_symmetry_space_group_name_H-M    'P1' 
_symmetry_Int_Tables_number       1 
_symmetry_cell_setting            triclinic 
loop_ 
_symmetry_equiv_pos_as_xyz 
  x,y,z 
_cell_length_a                    66.78941436 
_cell_length_b                    66.61050550923915 
_cell_length_c                    66.49934760228669 
_cell_angle_alpha                 89.8978928836797 
_cell_angle_beta                  89.77678825074968 
_cell_angle_gamma                 90.25425836685294 
loop_ 
_atom_site_label 
_atom_site_type_symbol 
_atom_site_fract_x 
_atom_site_fract_y 
_atom_site_fract_z 
_atom_site_charge 
N1          N  0.04438696  0.87984737  0.67533266    -0.26800
N2          N  0.05355694  0.89730811  0.67302314    -0.34700
C3          C  0.07341521  0.89398003  0.67158427     0.01500
C4          C  0.07690631  0.87338607  0.67287920     0.07500
C5          C  0.05801413  0.86498191  0.67523152    -0.05600
H6          H  0.08445033  0.90566685  0.66912517     0.08200
H7          H  0.05436497  0.84920353  0.67664290     0.09400
Cu8        Cu  0.03771781  0.92449809  0.67063993     0.44200
Cu9        Cu  0.01359974  0.87741201  0.67745071     0.42000
Cu10       Cu  0.98234687  0.92164239  0.66977838     0.43900
N11         N  0.01877291  0.94953101  0.66748112    -0.34200
N12         N  0.99893134  0.94868501  0.66728039    -0.28500
C13         C  0.99177860  0.96753729  0.66503231    -0.04600
C14         C  0.00779590  0.98089435  0.66362836     0.07600
C15         C  0.02461150  0.96883952  0.66524675     0.01400
H16         H  0.97604498  0.97125228  0.66432018     0.09100
H17         H  0.04006210  0.97376755  0.66484742     0.08200
N18         N  0.97090342  0.89218323  0.67335419    -0.35700
N19         N  0.98268341  0.87663696  0.67682733    -0.27800
C20         C  0.97147977  0.86011885  0.67980133    -0.03100
C21         C  0.95157321  0.86513918  0.67785654     0.05500
C22         C  0.95167406  0.88564409  0.67374230     0.03600
H23         H  0.97743610  0.84547356  0.68340824     0.08700
H24         H  0.93873257  0.89520812  0.67208859     0.07600
N25         N  0.03836026  0.10617645  0.64628710    -0.26800
N26         N  0.04845688  0.08931369  0.64860147    -0.34700
C27         C  0.06811998  0.09387379  0.64972815     0.01500
C28         C  0.07049832  0.11462348  0.64829336     0.07500
C29         C  0.05119587  0.12184089  0.64614394    -0.05600
H30         H  0.07976531  0.08294820  0.65231834     0.08200
H31         H  0.04670856  0.13738146  0.64497255     0.09400
Cu32       Cu  0.03436286  0.06112932  0.65205557     0.44200
Cu33       Cu  0.00741832  0.10720927  0.64546576     0.42000
Cu34       Cu  0.97988430  0.06135386  0.65791578     0.43900
N35         N  0.01694469  0.03499755  0.65646349    -0.34200
N36         N  0.99719503  0.03496316  0.65843611    -0.28500
C37         C  0.99084673  0.01581823  0.66109076    -0.04600
C38         C  0.00733649  0.00314946  0.66091726     0.07600
C39         C  0.02357486  0.01593236  0.65794091     0.01400
H40         H  0.97536258  0.01144972  0.66322667     0.09100
H41         H  0.03915743  0.01167200  0.65696952     0.08200
N42         N  0.96690702  0.09011429  0.65654021    -0.35700
N43         N  0.97692933  0.10639659  0.65095492    -0.27800
C44         C  0.96501977  0.12254297  0.65265504    -0.03100
C45         C  0.94656273  0.11630868  0.65969121     0.05500
C46         C  0.94832661  0.09569022  0.66223914     0.03600
H47         H  0.96996923  0.13789319  0.65053777     0.08700
H48         H  0.93726975  0.08568002  0.66876763     0.07600
N49         N  0.17995362  0.38713177  0.46120834    -0.26800
N50         N  0.18394039  0.40350337  0.45058786    -0.34700
C51         C  0.18850173  0.39791493  0.43160691     0.01500
C52         C  0.18687256  0.37714861  0.43015870     0.07500
C53         C  0.18161022  0.37090253  0.44928898    -0.05600
H54         H  0.19384973  0.40805712  0.42003020     0.08200
H55         H  0.18083988  0.35555470  0.45460067     0.09400
Cu56       Cu  0.18495313  0.43250552  0.46325409     0.44200
Cu57       Cu  0.17660695  0.38666282  0.49224725     0.42000
Cu58       Cu  0.18389704  0.43318125  0.51836105     0.43900
N59         N  0.18477158  0.45910497  0.48041961    -0.34200
N60         N  0.18448868  0.45914044  0.50034397    -0.28500
C61         C  0.18418765  0.47829710  0.50683653    -0.04600
C62         C  0.18421443  0.49109676  0.49034934     0.07600
C63         C  0.18460239  0.47834422  0.47382521     0.01400
H64         H  0.18377008  0.48259922  0.52250974     0.09100
H65         H  0.18465877  0.48273215  0.45815462     0.08200
N66         N  0.18216969  0.40525405  0.53303743    -0.35700
N67         N  0.17887401  0.38827763  0.52331671    -0.27800
C68         C  0.17874682  0.37291047  0.53651554    -0.03100
C69         C  0.18228674  0.38041691  0.55560952     0.05500
C70         C  0.18435383  0.40105358  0.55275819     0.03600
H71         H  0.17686415  0.35732553  0.53236626     0.08700
H72         H  0.18725963  0.41222954  0.56417340     0.07600
N73         N  0.18873553  0.61360024  0.52912557    -0.26800
N74         N  0.18711517  0.59603587  0.53820678    -0.34700
C75         C  0.18817971  0.59896740  0.55823703     0.01500
C76         C  0.19068249  0.61941845  0.56183767     0.07500
C77         C  0.19091222  0.62812818  0.54292230    -0.05600
H78         H  0.18773100  0.58703825  0.56928851     0.08200
H79         H  0.19259418  0.64388252  0.53931934     0.09400
Cu80       Cu  0.18451433  0.56933961  0.52189536     0.44200
Cu81       Cu  0.18822549  0.61698360  0.49837707     0.42000
Cu82       Cu  0.18116347  0.57348263  0.46638521     0.43900
N83         N  0.18347254  0.54483592  0.50226334    -0.34200
N84         N  0.18240880  0.54594601  0.48238541    -0.28500
C85         C  0.18253379  0.52703400  0.47491660    -0.04600
C86         C  0.18367818  0.51346235  0.49081865     0.07600
C87         C  0.18422631  0.52540666  0.50782883     0.01400
H88         H  0.18186526  0.52341233  0.45908091     0.09100
H89         H  0.18524783  0.52034450  0.52325383     0.08200
N90         N  0.18209854  0.60343878  0.45560627    -0.35700
N91         N  0.18561772  0.61886911  0.46761246    -0.27800
C92         C  0.18678084  0.63585365  0.45673903    -0.03100
C93         C  0.18346525  0.63119674  0.43684708     0.05500
C94         C  0.18051856  0.61049459  0.43658895     0.03600
H95         H  0.18981158  0.65057120  0.46291489     0.08700
H96         H  0.17813382  0.60122118  0.42347074     0.07600
N97         N  0.30678654  0.30576082  0.81820772    -0.03000
C98         C  0.32120539  0.31811486  0.82595585    -0.00400
C99         C  0.33636524  0.30652244  0.83417497    -0.23300
C100        C  0.33147627  0.28683808  0.83107866    -0.23500
C101        C  0.31345705  0.28661914  0.82104478    -0.00500
H102        H  0.35043464  0.31163663  0.84036647     0.13300
H103        H  0.34057863  0.27402484  0.83501450     0.13300
N104        N  0.19180467  0.29201132  0.81883860    -0.03000
C105        C  0.18226962  0.28315999  0.83484481    -0.00400
C106        C  0.16912393  0.26853065  0.82831823    -0.23300
C107        C  0.16978713  0.26859719  0.80782423    -0.23500
C108        C  0.18339183  0.28328376  0.80223828    -0.00500
H109        H  0.15844068  0.26029766  0.83747418     0.13300
H110        H  0.15990979  0.26015282  0.79810356     0.13300
N111        N  0.32193814  0.15671544  0.66910282    -0.03000
C112        C  0.33637373  0.14779219  0.65756227    -0.00400
C113        C  0.32745293  0.13732238  0.64196918    -0.23300
C114        C  0.30728687  0.14029626  0.64343668    -0.23500
C115        C  0.30410127  0.15248904  0.65991058    -0.00500
H116        H  0.33485870  0.12990167  0.62955415     0.13300
H117        H  0.29619108  0.13499445  0.63285764     0.13300
N118        N  0.30268244  0.15712106  0.78579944    -0.03000
C119        C  0.29561306  0.14084330  0.79634120    -0.00400
C120        C  0.27905018  0.14614143  0.80759008    -0.23300
C121        C  0.27653330  0.16632419  0.80532918    -0.23500
C122        C  0.29150291  0.17297975  0.79248944    -0.00500
H123        H  0.27159144  0.13695593  0.81881953     0.13300
H124        H  0.26647471  0.17536569  0.81427735     0.13300
N125        N  0.17278380  0.30341158  0.66818090    -0.03000
C126        C  0.16678023  0.31786071  0.65499295    -0.00400
C127        C  0.15656923  0.33279555  0.66512461    -0.23300
C128        C  0.15647166  0.32772836  0.68506400    -0.23500
C129        C  0.16663230  0.30979140  0.68669061    -0.00500
H130        H  0.15092351  0.34663084  0.65878784     0.13300
H131        H  0.15027919  0.33658930  0.69719531     0.13300
N132        N  0.17903942  0.18872185  0.68049462    -0.03000
C133        C  0.16172937  0.17918525  0.68638509    -0.00400
C134        C  0.16503365  0.16741849  0.70311148    -0.23300
C135        C  0.18487441  0.16893044  0.70752491    -0.23500
C136        C  0.19336868  0.18164917  0.69337754    -0.00500
H137        H  0.15452241  0.15704915  0.71000970     0.13300
H138        H  0.19258585  0.16000771  0.71866103     0.13300
N139        N  0.88894844  0.66504743  0.03276146    -0.26800
N140        N  0.90555687  0.66700496  0.04334540    -0.34700
C141        C  0.90050728  0.66979357  0.06278909     0.01500
C142        C  0.87977392  0.66934865  0.06431968     0.07500
C143        C  0.87302749  0.66630277  0.04500843    -0.05600
H144        H  0.91110483  0.67130510  0.07496359     0.08200
H145        H  0.85763591  0.66500901  0.04014971     0.09400
Cu146      Cu  0.93404750  0.66488961  0.03046324     0.44200
Cu147      Cu  0.88773829  0.66121926  0.00217821     0.42000
Cu148      Cu  0.93378920  0.66284007  0.97521552     0.43900
N149        N  0.95988894  0.66296806  0.01275425    -0.34200
N150        N  0.95978934  0.66250488  0.99283991    -0.28500
C151        C  0.97886717  0.66209535  0.98615872    -0.04600
C152        C  0.99161001  0.66227250  0.00257064     0.07600
C153        C  0.97902046  0.66275639  0.01917944     0.01400
H154        H  0.98314722  0.66191199  0.97045600     0.09100
H155        H  0.98343568  0.66332216  0.03480486     0.08200
N156        N  0.90573658  0.66273336  0.96111312    -0.35700
N157        N  0.88878249  0.66155507  0.97132591    -0.27800
C158        C  0.87323366  0.66194252  0.95854461    -0.03100
C159        C  0.88064200  0.66360602  0.93915289     0.05500
C160        C  0.90136958  0.66403726  0.94139556     0.03600
H161        H  0.85768193  0.66164142  0.96314618     0.08700
H162        H  0.91248887  0.66518498  0.92958148     0.07600
N163        N  0.11615693  0.66807652  0.96812552    -0.26800
N164        N  0.09863541  0.66960404  0.95906563    -0.34700
C165        C  0.10180163  0.67334718  0.93941827     0.01500
C166        C  0.12227754  0.67394170  0.93584988     0.07500
C167        C  0.13091646  0.67046477  0.95441193    -0.05600
H168        H  0.09005136  0.67595808  0.92857963     0.08200
H169        H  0.14671699  0.67087983  0.95791307     0.09400
Cu170      Cu  0.07110617  0.66747362  0.97400313     0.44200
Cu171      Cu  0.11890470  0.66560885  0.99912709     0.42000
Cu172      Cu  0.07227921  0.66436315  0.02830343     0.43900
N173        N  0.04538248  0.66479862  0.99181828    -0.34200
N174        N  0.04572176  0.66374816  0.01168643    -0.28500
C175        C  0.02672733  0.66251226  0.01859126    -0.04600
C176        C  0.01380985  0.66275035  0.00229851     0.07600
C177        C  0.02621026  0.66417902  0.98559389     0.01400
H178        H  0.02262416  0.66164300  0.03432405     0.09100
H179        H  0.02163240  0.66496862  0.97002746     0.08200
N180        N  0.10091484  0.66573302  0.04096465    -0.35700
N181        N  0.11769496  0.66624653  0.03033930    -0.27800
C182        C  0.13335289  0.66794678  0.04291787    -0.03100
C183        C  0.12623339  0.66842908  0.06252339     0.05500
C184        C  0.10554440  0.66697065  0.06062087     0.03600
H185        H  0.14879051  0.66889985  0.03803647     0.08700
H186        H  0.09454872  0.66735525  0.07259339     0.07600
N187        N  0.88198702  0.31441560  0.94869754    -0.26800
N188        N  0.89939630  0.31052555  0.93994298    -0.34700
C189        C  0.89612765  0.30755338  0.92011834     0.01500
C190        C  0.87580106  0.30997681  0.91611768     0.07500
C191        C  0.86741346  0.31438585  0.93467270    -0.05600
H192        H  0.90770586  0.30383705  0.90934292     0.08200
H193        H  0.85169008  0.31658716  0.93790044     0.09400
Cu194      Cu  0.92705030  0.30957942  0.95558407     0.44200
Cu195      Cu  0.87819849  0.31779584  0.97973379     0.42000
Cu196      Cu  0.92331439  0.31451491  0.00976081     0.43900
N197        N  0.95232664  0.31070103  0.97482959    -0.34200
N198        N  0.95077145  0.31267627  0.99458560    -0.28500
C199        C  0.96928749  0.31325992  0.00267186    -0.04600
C200        C  0.98336670  0.31154094  0.98739061     0.07600
C201        C  0.97199478  0.30993627  0.96993607     0.01400
H202        H  0.97228108  0.31481371  0.01857089     0.09100
H203        H  0.97764389  0.30839713  0.95475254     0.08200
N204        N  0.89445170  0.31635766  0.02201737    -0.35700
N205        N  0.87797643  0.31802826  0.01117785    -0.27800
C206        C  0.86203467  0.31906030  0.02369153    -0.03100
C207        C  0.86873209  0.31776930  0.04340498     0.05500
C208        C  0.88939787  0.31609950  0.04163611     0.03600
H209        H  0.84666799  0.32026574  0.01877169     0.08700
H210        H  0.90008392  0.31499595  0.05376333     0.07600
N211        N  0.11062541  0.30368965  0.96447470    -0.26800
N212        N  0.09402063  0.30516377  0.95382588    -0.34700
C213        C  0.09891229  0.30604869  0.93418877     0.01500
C214        C  0.11961137  0.30506330  0.93228299     0.07500
C215        C  0.12649553  0.30343768  0.95187251    -0.05600
H216        H  0.08813330  0.30742279  0.92217426     0.08200
H217        H  0.14193550  0.30282866  0.95668153     0.09400
Cu218      Cu  0.06537789  0.30687435  0.96653123     0.44200
Cu219      Cu  0.11074754  0.30395835  0.99574466     0.42000
Cu220      Cu  0.06227640  0.31331440  0.02049151     0.43900
N221        N  0.03815932  0.30960384  0.98193604    -0.34200
N222        N  0.03677933  0.31216060  0.00163133    -0.28500
C223        C  0.01715413  0.31333489  0.00664594    -0.04600
C224        C  0.00564864  0.31140661  0.98930460     0.07600
C225        C  0.01959793  0.30908146  0.97399846     0.01400
H226        H  0.01162973  0.31533249  0.02182183     0.09100
H227        H  0.01648201  0.30706024  0.95817885     0.08200
N228        N  0.09013088  0.31197316  0.03559570    -0.35700
N229        N  0.10734428  0.30781373  0.02659810    -0.27800
C230        C  0.12206626  0.30733946  0.04040170    -0.03100
C231        C  0.11397316  0.31161477  0.05910476     0.05500
C232        C  0.09366325  0.31451319  0.05541378     0.03600
H233        H  0.13763707  0.30447789  0.03695797     0.08700
H234        H  0.08220515  0.31791438  0.06641506     0.07600
N235        N  0.68279441  0.97425329  0.87480535    -0.26800
N236        N  0.67925284  0.96279808  0.89071061    -0.34700
C237        C  0.68160982  0.94338722  0.88526177     0.01500
C238        C  0.68712134  0.94281458  0.86508214     0.07500
C239        C  0.68778336  0.96265859  0.85908977    -0.05600
H240        H  0.68041645  0.93073721  0.89542708     0.08200
H241        H  0.69195405  0.96831766  0.84438933     0.09400
Cu242      Cu  0.67355450  0.97503335  0.91935352     0.44200
Cu243      Cu  0.68148863  0.00524701  0.87463129     0.42000
Cu244      Cu  0.67383891  0.03031091  0.92171575     0.43900
N245        N  0.67081527  0.99165589  0.94616513    -0.34200
N246        N  0.67106876  0.01153465  0.94699863    -0.28500
C247        C  0.66974766  0.01726820  0.96642769    -0.04600
C248        C  0.66865464  0.00028065  0.97849902     0.07600
C249        C  0.66934292  0.98434349  0.96507249     0.01400
H250        H  0.66989215  0.03271382  0.97142757     0.09100
H251        H  0.66912027  0.96853132  0.96880527     0.08200
N252        N  0.67658511  0.04549385  0.89413856    -0.35700
N253        N  0.67932456  0.03609557  0.87688795    -0.27800
C254        C  0.67981019  0.04958655  0.86180546    -0.03100
C255        C  0.67726410  0.06863763  0.86979600     0.05500
C256        C  0.67529487  0.06533729  0.89043903     0.03600
H257        H  0.68146693  0.04562272  0.84613271     0.08700
H258        H  0.67271708  0.07642498  0.90199417     0.07600
N259        N  0.66904829  0.02371960  0.10596618    -0.26800
N260        N  0.66882718  0.03561696  0.09002194    -0.34700
C261        C  0.67073195  0.05480595  0.09640147     0.01500
C262        C  0.67247598  0.05473357  0.11726454     0.07500
C263        C  0.67139209  0.03474979  0.12265198    -0.05600
H264        H  0.67167922  0.06774276  0.08658092     0.08200
H265        H  0.67253394  0.02856654  0.13765920     0.09400
Cu266      Cu  0.66758978  0.02415931  0.06047956     0.44200
Cu267      Cu  0.66734839  0.99286579  0.10524888     0.42000
Cu268      Cu  0.66892579  0.96876697  0.05752617     0.43900
N269        N  0.66746524  0.00775810  0.03333574    -0.34200
N270        N  0.66784359  0.98788337  0.03237993    -0.28500
C271        C  0.66800981  0.98227655  0.01288271    -0.04600
C272        C  0.66781797  0.99931862  0.00086974     0.07600
C273        C  0.66744878  0.01518437  0.01440646     0.01400
H274        H  0.66855910  0.96686439  0.00781533     0.09100
H275        H  0.66742456  0.03101610  0.01075357     0.08200
N276        N  0.67025349  0.95307447  0.08491729    -0.35700
N277        N  0.66895644  0.96214658  0.10251594    -0.27800
C278        C  0.67059433  0.94851522  0.11738461    -0.03100
C279        C  0.67333503  0.92982891  0.10881333     0.05500
C280        C  0.67301201  0.93331326  0.08816704     0.03600
H281        H  0.67067140  0.95210600  0.13324377     0.08700
H282        H  0.67483380  0.92230906  0.07636493     0.07600
N283        N  0.82011805  0.38563398  0.45190553    -0.26800
N284        N  0.81808999  0.40337457  0.44322913    -0.34700
C285        C  0.81654053  0.40062410  0.42321129     0.01500
C286        C  0.81780628  0.38017347  0.41908062     0.07500
C287        C  0.82009299  0.37122019  0.43774135    -0.05600
H288        H  0.81514779  0.41269929  0.41241957     0.08200
H289        H  0.82158589  0.35536132  0.44088342     0.09400
Cu290      Cu  0.81856974  0.43049267  0.45935225     0.44200
Cu291      Cu  0.82268382  0.38170241  0.48265869     0.42000
Cu292      Cu  0.82356922  0.42600377  0.51411251     0.43900
N293        N  0.82069240  0.45518421  0.47890179    -0.34200
N294        N  0.82251499  0.45355888  0.49867095    -0.28500
C295        C  0.82361803  0.47214962  0.50666541    -0.04600
C296        C  0.82248834  0.48621047  0.49128090     0.07600
C297        C  0.82064911  0.47484459  0.47390227     0.01400
H298        H  0.82521353  0.47520883  0.52255088     0.09100
H299        H  0.81939843  0.48046289  0.45868790     0.08200
N300        N  0.82379281  0.39652432  0.52547033    -0.35700
N301        N  0.82336399  0.38052176  0.51374715    -0.27800
C302        C  0.82268504  0.36385973  0.52518365    -0.03100
C303        C  0.82274502  0.36943071  0.54524219     0.05500
C304        C  0.82352479  0.39033358  0.54480632     0.03600
H305        H  0.82202863  0.34877908  0.51921846     0.08700
H306        H  0.82327987  0.40034867  0.55758718     0.07600
N307        N  0.83416822  0.61334350  0.47049930    -0.26800
N308        N  0.82930223  0.59797877  0.45888407    -0.34700
C309        C  0.82884942  0.60439114  0.43959797     0.01500
C310        C  0.83393242  0.62463471  0.43915980     0.07500
C311        C  0.83731260  0.62969262  0.45900201    -0.05600
H312        H  0.82583379  0.59488002  0.42678298     0.08200
H313        H  0.84173704  0.64425251  0.46469403     0.09400
Cu314      Cu  0.82521706  0.56872655  0.47021386     0.44200
Cu315      Cu  0.83569146  0.61203054  0.50160900     0.42000
Cu316      Cu  0.82694637  0.56405556  0.52514615     0.43900
N317        N  0.82412049  0.54113601  0.48566180    -0.34200
N318        N  0.82495142  0.53946858  0.50549802    -0.28500
C319        C  0.82445214  0.51981492  0.51048578    -0.04600
C320        C  0.82321884  0.50848088  0.49303777     0.07600
C321        C  0.82303353  0.52256063  0.47761509     0.01400
H322        H  0.82500917  0.51417798  0.52573880     0.09100
H323        H  0.82234024  0.51951616  0.46165909     0.08200
N324        N  0.82933177  0.59106672  0.54122718    -0.35700
N325        N  0.83299639  0.60854160  0.53248442    -0.27800
C326        C  0.83352436  0.62304938  0.54655940    -0.03100
C327        C  0.82986838  0.61443274  0.56521183     0.05500
C328        C  0.82731508  0.59407159  0.56117285     0.03600
H329        H  0.83591542  0.63879853  0.54332156     0.08700
H330        H  0.82429147  0.58224298  0.57193776     0.07600
N331        N  0.83347294  0.18582434  0.68297443    -0.03000
C332        C  0.84905873  0.17504240  0.69043639    -0.00400
C333        C  0.84237539  0.16314437  0.70627406    -0.23300
C334        C  0.82225844  0.16643159  0.70842576    -0.23500
C335        C  0.81709952  0.18035393  0.69400045    -0.00500
H336        H  0.85084042  0.15199230  0.71443991     0.13300
H337        H  0.81230114  0.15883194  0.71885226     0.13300
N338        N  0.80047152  0.28942890  0.64899755    -0.03000
C339        C  0.79109660  0.29376270  0.63141560    -0.00400
C340        C  0.77176547  0.30011911  0.63525658    -0.23300
C341        C  0.76933217  0.30031814  0.65576020    -0.23500
C342        C  0.78717231  0.29391068  0.66385299    -0.00500
H343        H  0.76159414  0.30673479  0.62450659     0.13300
H344        H  0.75688775  0.30686445  0.66385647     0.13300
N345        N  0.68840661  0.32280976  0.81193238    -0.03000
C346        C  0.67749895  0.33789601  0.82037166    -0.00400
C347        C  0.66148788  0.32997947  0.83106815    -0.23300
C348        C  0.66218750  0.30956049  0.82892734    -0.23500
C349        C  0.67862988  0.30560105  0.81703171    -0.00500
H350        H  0.64935166  0.33832773  0.83786126     0.13300
H351        H  0.65092443  0.29891883  0.83393104     0.13300
N352        N  0.80622946  0.31336967  0.79755245    -0.03000
C353        C  0.82257593  0.31433291  0.80990994    -0.00400
C354        C  0.83982896  0.31663205  0.79854859    -0.23300
C355        C  0.83428728  0.31669995  0.77880500    -0.23500
C356        C  0.81374192  0.31438273  0.77845446    -0.00500
H357        H  0.85502241  0.31755520  0.80409368     0.13300
H358        H  0.84434395  0.31719945  0.76600857     0.13300
N359        N  0.68435171  0.18148567  0.67136272    -0.03000
C360        C  0.67120925  0.18412263  0.65589902    -0.00400
C361        C  0.68096370  0.19249623  0.63946816    -0.23300
C362        C  0.70063440  0.19482719  0.64459325    -0.23500
C363        C  0.70239331  0.18774039  0.66396936    -0.00500
H364        H  0.67451779  0.19585333  0.62494034     0.13300
H365        H  0.71261467  0.19990358  0.63479928     0.13300
N366        N  0.66755187  0.17549027  0.78803457    -0.03000
C367        C  0.65585095  0.16090991  0.79642019    -0.00400
C368        C  0.63853847  0.16933301  0.80416952    -0.23300
C369        C  0.64027427  0.18967221  0.80186953    -0.23500
C370        C  0.65839012  0.19311557  0.79247238    -0.00500
H371        H  0.62752291  0.16184674  0.81356106     0.13300
H372        H  0.63085944  0.20078740  0.80900451     0.13300
N373        N  0.47087482  0.17922441  0.36616199    -0.26800
N374        N  0.46116689  0.17668399  0.38334843    -0.34700
C375        C  0.44176288  0.17297239  0.37925930     0.01500
C376        C  0.43916577  0.17327916  0.35851974     0.07500
C377        C  0.45798095  0.17740550  0.35076757    -0.05600
H378        H  0.43035712  0.17038160  0.39057284     0.08200
H379        H  0.46213965  0.17856185  0.33506727     0.09400
Cu380      Cu  0.47509349  0.17818555  0.41154196     0.44200
Cu381      Cu  0.50136222  0.18405645  0.36423304     0.42000
Cu382      Cu  0.52946106  0.18463929  0.41087802     0.43900
N383        N  0.49257645  0.17963617  0.43766650    -0.34200
N384        N  0.51230627  0.18178145  0.43752404    -0.28500
C385        C  0.51884885  0.18181439  0.45674152    -0.04600
C386        C  0.50252373  0.17963686  0.46963425     0.07600
C387        C  0.48614941  0.17832922  0.45690979     0.01400
H388        H  0.53438716  0.18331631  0.46103767     0.09100
H389        H  0.47064746  0.17643600  0.46132081     0.08200
N390        N  0.54260246  0.18764770  0.38206056    -0.35700
N391        N  0.53205536  0.18763629  0.36527135    -0.27800
C392        C  0.54438399  0.19014718  0.34941243    -0.03100
C393        C  0.56384314  0.19178695  0.35632217     0.05500
C394        C  0.56209893  0.19009446  0.37716276     0.03600
H395        H  0.53945644  0.19053986  0.33394270     0.08700
H396        H  0.57408714  0.19089184  0.38801982     0.07600
N397        N  0.53488007  0.17699211  0.59564834    -0.26800
N398        N  0.54436672  0.17634170  0.57815976    -0.34700
C399        C  0.56410639  0.17431605  0.58160697     0.01500
C400        C  0.56731037  0.17370969  0.60224439     0.07500
C401        C  0.54837807  0.17558910  0.61064056    -0.05600
H402        H  0.57531894  0.17317366  0.56988509     0.08200
H403        H  0.54458929  0.17513802  0.62646543     0.09400
Cu404      Cu  0.53001763  0.17735446  0.55015996     0.44200
Cu405      Cu  0.50377753  0.17779250  0.59813981     0.42000
Cu406      Cu  0.47577345  0.17474904  0.55103019     0.43900
N407        N  0.51256640  0.17784358  0.52399579    -0.34200
N408        N  0.49276381  0.17677545  0.52419277    -0.28500
C409        C  0.48616704  0.17726258  0.50499585    -0.04600
C410        C  0.50254406  0.17873872  0.49206578     0.07600
C411        C  0.51899906  0.17907590  0.50474811     0.01400
H412        H  0.47056315  0.17660211  0.50073781     0.09100
H413        H  0.53457030  0.18006076  0.50029816     0.08200
N414        N  0.46249453  0.17331039  0.57993415    -0.35700
N415        N  0.47269183  0.17512068  0.59688465    -0.27800
C416        C  0.46009844  0.17277414  0.61263891    -0.03100
C417        C  0.44099355  0.16929557  0.60542534     0.05500
C418        C  0.44314790  0.16950141  0.58461956     0.03600
H419        H  0.46475061  0.17227766  0.62819703     0.08700
H420        H  0.43160272  0.16628214  0.57370961     0.07600
N421        N  0.83378879  0.31390034  0.30216478    -0.03000
C422        C  0.84247268  0.32534467  0.31670497    -0.00400
C423        C  0.85471076  0.33977391  0.30802982    -0.23300
C424        C  0.85325587  0.33754680  0.28762439    -0.23500
C425        C  0.84009204  0.32186703  0.28437488    -0.00500
H426        H  0.86213680  0.35202734  0.31569533     0.13300
H427        H  0.85940947  0.34765200  0.27640914     0.13300
N428        N  0.81579482  0.19621558  0.30525165    -0.03000
C429        C  0.82654159  0.17886981  0.30711294    -0.00400
C430        C  0.81364478  0.16284620  0.31044782    -0.23300
C431        C  0.79459726  0.17016998  0.31006503    -0.23500
C432        C  0.79616791  0.19054699  0.30655934    -0.00500
H433        H  0.81765147  0.14723940  0.31241787     0.13300
H434        H  0.78100017  0.16132783  0.31115768     0.13300
N435        N  0.68930842  0.31764564  0.18602518    -0.03000
C436        C  0.67408621  0.33096212  0.18886490    -0.00400
C437        C  0.65980776  0.32313544  0.20179008    -0.23300
C438        C  0.66606735  0.30435749  0.20707378    -0.23500
C439        C  0.68392134  0.30119594  0.19707903    -0.00500
H440        H  0.64585451  0.33009259  0.20621429     0.13300
H441        H  0.65775841  0.29359477  0.21606315     0.13300
N442        N  0.80187454  0.33693692  0.15710630    -0.03000
C443        C  0.80713929  0.34724507  0.14016337    -0.00400
C444        C  0.81841787  0.36392578  0.14520160    -0.23300
C445        C  0.82088764  0.36350547  0.16563849    -0.23500
C446        C  0.81088484  0.34669338  0.17264537    -0.00500
H447        H  0.82654667  0.37358582  0.13488249     0.13300
H448        H  0.83103280  0.37293542  0.17411379     0.13300
N449        N  0.67008298  0.21661161  0.28033365    -0.03000
C450        C  0.65318788  0.22685693  0.28509552    -0.00400
C451        C  0.65817600  0.24581480  0.29195882    -0.23300
C452        C  0.67872070  0.24706685  0.29197283    -0.23500
C453        C  0.68569587  0.22887147  0.28505504    -0.00500
H454        H  0.64813528  0.25642876  0.29900066     0.13300
H455        H  0.68752125  0.25883997  0.29889384     0.13300
N456        N  0.69529187  0.17462542  0.17571984    -0.03000
C457        C  0.70010309  0.15704298  0.16666390    -0.00400
C458        C  0.71602972  0.15997964  0.15360006    -0.23300
C459        C  0.72104252  0.17994231  0.15442372    -0.23500
C460        C  0.70816211  0.18860793  0.16812696    -0.00500
H461        H  0.72199636  0.14916920  0.14304654     0.13300
H462        H  0.73209717  0.18753089  0.14517185     0.13300
N463        N  0.33446787  0.95195054  0.87417977    -0.26800
N464        N  0.33567640  0.94248079  0.89156046    -0.34700
C465        C  0.33366955  0.92260227  0.88822566     0.01500
C466        C  0.33096800  0.91942231  0.86766417     0.07500
C467        C  0.33163870  0.93854316  0.85935934    -0.05600
H468        H  0.33350073  0.91141490  0.90002382     0.08200
H469        H  0.32972617  0.94261806  0.84374748     0.09400
Cu470      Cu  0.33844262  0.95830959  0.91864624     0.44200
Cu471      Cu  0.33492414  0.98284276  0.87195876     0.42000
Cu472      Cu  0.33715636  0.01445266  0.91632230     0.43900
N473        N  0.33964263  0.97732792  0.94374074    -0.34200
N474        N  0.33923071  0.99724254  0.94325381    -0.28500
C475        C  0.33967514  0.00405122  0.96243724    -0.04600
C476        C  0.34032310  0.98772990  0.97555367     0.07600
C477        C  0.34031216  0.97113331  0.96304436     0.01400
H478        H  0.33921618  0.01974178  0.96657605     0.09100
H479        H  0.34049554  0.95555312  0.96765300     0.08200
N480        N  0.33351671  0.02588713  0.88666293    -0.35700
N481        N  0.33262983  0.01370782  0.87099129    -0.27800
C482        C  0.32860057  0.02428194  0.85432576    -0.03100
C483        C  0.32691653  0.04431726  0.85928720     0.05500
C484        C  0.33024900  0.04487299  0.88000842     0.03600
H485        H  0.32645003  0.01768750  0.83962862     0.08700
H486        H  0.32927595  0.05792160  0.88961726     0.07600
N487        N  0.32818150  0.01804244  0.10074054    -0.26800
N488        N  0.33412755  0.02808479  0.08459705    -0.34700
C489        C  0.33621158  0.04760872  0.08953602     0.01500
C490        C  0.33111770  0.04996372  0.10967740     0.07500
C491        C  0.32602243  0.03087026  0.11620668    -0.05600
H492        H  0.34074021  0.05929905  0.07913798     0.08200
H493        H  0.32150969  0.02650876  0.13123943     0.09400
Cu494      Cu  0.33832909  0.01453529  0.05644102     0.44200
Cu495      Cu  0.32493639  0.98710102  0.10168419     0.42000
Cu496      Cu  0.33665636  0.95956749  0.05638011     0.43900
N497        N  0.33958250  0.99725206  0.03011027    -0.34200
N498        N  0.33899036  0.97736411  0.03002047    -0.28500
C499        C  0.33942849  0.97104090  0.01072366    -0.04600
C500        C  0.34026592  0.98764595  0.99800983     0.07600
C501        C  0.34035340  0.00398347  0.01093060     0.01400
H502        H  0.33883897  0.95544945  0.00623652     0.09100
H503        H  0.34067473  0.01966964  0.00669082     0.08200
N504        N  0.33266362  0.94585508  0.08489942    -0.35700
N505        N  0.32765113  0.95612912  0.10114257    -0.27800
C506        C  0.32619270  0.94358389  0.11699656    -0.03100
C507        C  0.33064507  0.92429138  0.11071128     0.05500
C508        C  0.33467265  0.92636943  0.09018342     0.03600
H509        H  0.32275299  0.94834511  0.13215729     0.08700
H510        H  0.33874971  0.91456829  0.07981704     0.07600
N511        N  0.60793536  0.52956008  0.81018509    -0.26800
N512        N  0.59072703  0.53895259  0.81290971    -0.34700
C513        C  0.59475703  0.55834236  0.81732074     0.01500
C514        C  0.61544612  0.56124098  0.81711015     0.07500
C515        C  0.62319271  0.54261206  0.81243803    -0.05600
H516        H  0.58346704  0.56956901  0.82026061     0.08200
H517        H  0.63884229  0.53865185  0.81125041     0.09400
Cu518      Cu  0.56266248  0.52441681  0.80999636     0.44200
Cu519      Cu  0.61046588  0.49914958  0.80467368     0.42000
Cu520      Cu  0.56544641  0.47049317  0.79790812     0.43900
N521        N  0.53735486  0.50578387  0.80539246    -0.34200
N522        N  0.53852281  0.48639290  0.80110957    -0.28500
C523        C  0.51983509  0.47883849  0.79927121    -0.04600
C524        C  0.50610210  0.49407506  0.80243132     0.07600
C525        C  0.51780588  0.51095832  0.80626049     0.01400
H526        H  0.51648650  0.46331168  0.79586575     0.09100
H527        H  0.51247796  0.52591552  0.80954943     0.08200
N528        N  0.59416948  0.45779843  0.79685631    -0.35700
N529        N  0.61057481  0.46846216  0.80010325    -0.27800
C530        C  0.62657209  0.45624803  0.80000504    -0.03100
C531        C  0.62008301  0.43688730  0.79619546     0.05500
C532        C  0.59942626  0.43844272  0.79418994     0.03600
H533        H  0.64182901  0.46113632  0.80249760     0.08700
H534        H  0.58894666  0.42628088  0.79167382     0.07600
N535        N  0.38258351  0.45397254  0.79797927    -0.26800
N536        N  0.40013631  0.44513282  0.80022984    -0.34700
C537        C  0.39688628  0.42559423  0.80456405     0.01500
C538        C  0.37636677  0.42194955  0.80477851     0.07500
C539        C  0.36782338  0.44031983  0.80047463    -0.05600
H540        H  0.40854423  0.41500112  0.80826453     0.08200
H541        H  0.35203604  0.44387678  0.80089504     0.09400
Cu542      Cu  0.42762810  0.46082681  0.79964208     0.44200
Cu543      Cu  0.37924865  0.48482467  0.79637449     0.42000
Cu544      Cu  0.42391848  0.51476533  0.80622811     0.43900
N545        N  0.45272494  0.48011912  0.80077491    -0.34200
N546        N  0.45132743  0.49975104  0.80349919    -0.28500
C547        C  0.46994004  0.50771648  0.80434096    -0.04600
C548        C  0.48383085  0.49244790  0.80201889     0.07600
C549        C  0.47229810  0.47517658  0.79972768     0.01400
H550        H  0.47313054  0.52348234  0.80663041     0.09100
H551        H  0.47775976  0.46003781  0.79777522     0.08200
N552        N  0.39466778  0.52603896  0.80721519    -0.35700
N553        N  0.37865612  0.51528593  0.80250536    -0.27800
C554        C  0.36225697  0.52686443  0.80395792    -0.03100
C555        C  0.36809573  0.54577139  0.81018791     0.05500
C556        C  0.38874473  0.54472541  0.81213046     0.03600
H557        H  0.34713262  0.52174414  0.80113520     0.08700
H558        H  0.39875351  0.55677822  0.81642706     0.07600
N559        N  0.21819708  0.69249026  0.67209125    -0.03000
C560        C  0.22641900  0.68081093  0.65739055    -0.00400
C561        C  0.24238376  0.67003993  0.66482770    -0.23300
C562        C  0.24409214  0.67487522  0.68474183    -0.23500
C563        C  0.22906535  0.68839857  0.68890992    -0.00500
H564        H  0.25072951  0.65852244  0.65701880     0.13300
H565        H  0.25379491  0.66762854  0.69551844     0.13300
N566        N  0.18880220  0.80098804  0.64879920    -0.03000
C567        C  0.17346748  0.81209660  0.64131980    -0.00400
C568        C  0.18045824  0.82434163  0.62601141    -0.23300
C569        C  0.20059746  0.82089103  0.62409923    -0.23500
C570        C  0.20561736  0.80668373  0.63842397    -0.00500
H571        H  0.17210887  0.83586500  0.61823857     0.13300
H572        H  0.21067740  0.82887022  0.61409196     0.13300
N573        N  0.32821794  0.78505845  0.68375070    -0.03000
C574        C  0.34621523  0.77670102  0.67893109    -0.00400
C575        C  0.34356362  0.75852836  0.66933274    -0.23300
C576        C  0.32338920  0.75556938  0.66761174    -0.23500
C577        C  0.31424859  0.77204775  0.67617347    -0.00500
H578        H  0.35508310  0.74945148  0.66240692     0.13300
H579        H  0.31618962  0.74356675  0.65936173     0.13300
N580        N  0.29864870  0.81158443  0.79332183    -0.03000
C581        C  0.29064820  0.82788445  0.80255422    -0.00400
C582        C  0.27355652  0.82225019  0.81304218    -0.23300
C583        C  0.27103285  0.80197405  0.81031114    -0.23500
C584        C  0.28666056  0.79579320  0.79827880    -0.00500
H585        H  0.26525410  0.83142038  0.82356678     0.13300
H586        H  0.26039179  0.79245003  0.81815662     0.13300
N587        N  0.30022223  0.66135311  0.79774009    -0.03000
C588        C  0.31474368  0.64712944  0.79599357    -0.00400
C589        C  0.33283333  0.65582505  0.79071369    -0.23300
C590        C  0.32959187  0.67598699  0.78904893    -0.23500
C591        C  0.30958863  0.67902810  0.79332936    -0.00500
H592        H  0.34700480  0.64825234  0.78867781     0.13300
H593        H  0.34065976  0.68728930  0.78519633     0.13300
N594        N  0.18584933  0.67940698  0.81507996    -0.03000
C595        C  0.17068475  0.68416683  0.82810391    -0.00400
C596        C  0.15339693  0.68833039  0.81736547    -0.23300
C597        C  0.15785504  0.68640512  0.79746502    -0.23500
C598        C  0.17770077  0.68107182  0.79636707    -0.00500
H599        H  0.13873360  0.69182678  0.82334903     0.13300
H600        H  0.14768818  0.68868551  0.78503913     0.13300
N601        N  0.69202915  0.67472267  0.81427844    -0.03000
C602        C  0.67543174  0.66267827  0.81248206    -0.00400
C603        C  0.65951750  0.67341751  0.80481107    -0.23300
C604        C  0.66603102  0.69260347  0.80184527    -0.23500
C605        C  0.68574120  0.69319302  0.80786837    -0.00500
H606        H  0.64456882  0.66782749  0.80186689     0.13300
H607        H  0.65706726  0.70508980  0.79670775     0.13300
N608        N  0.80798327  0.65459581  0.82669796    -0.03000
C609        C  0.81726665  0.64491480  0.84210233    -0.00400
C610        C  0.83131731  0.63167560  0.83445169    -0.23300
C611        C  0.83116587  0.63361609  0.81396351    -0.23500
C612        C  0.81687278  0.64776785  0.80962519    -0.00500
H613        H  0.84229631  0.62337986  0.84300784     0.13300
H614        H  0.84123339  0.62642924  0.80343945     0.13300
N615        N  0.84254528  0.68086366  0.68258381    -0.03000
C616        C  0.85057678  0.66914804  0.66789416    -0.00400
C617        C  0.86123515  0.65356606  0.67648845    -0.23300
C618        C  0.85946257  0.65546246  0.69692178    -0.23500
C619        C  0.84789683  0.67220961  0.70028605    -0.00500
H620        H  0.86774020  0.64090677  0.66868563     0.13300
H621        H  0.86467622  0.64488008  0.70808639     0.13300
N622        N  0.83338678  0.79826778  0.69050621    -0.03000
C623        C  0.84837819  0.81112104  0.69606861    -0.00400
C624        C  0.84106739  0.82585219  0.70869281    -0.23300
C625        C  0.82097368  0.82253459  0.71076936    -0.23500
C626        C  0.81655251  0.80588142  0.69930656    -0.00500
H627        H  0.84920639  0.83876837  0.71427946     0.13300
H628        H  0.81044432  0.83226161  0.71835804     0.13300
N629        N  0.68295398  0.80519415  0.69010871    -0.03000
C630        C  0.66754846  0.79869998  0.67834373    -0.00400
C631        C  0.67388561  0.78306049  0.66621537    -0.23300
C632        C  0.69361942  0.77983670  0.67037446    -0.23500
C633        C  0.69890884  0.79350366  0.68499501    -0.00500
H634        H  0.66534292  0.77552096  0.65464778     0.13300
H635        H  0.70326878  0.76902768  0.66308576     0.13300
N636        N  0.70501982  0.82451842  0.80040661    -0.03000
C637        C  0.71256759  0.84037002  0.81086050    -0.00400
C638        C  0.72877268  0.83440877  0.82222890    -0.23300
C639        C  0.73118473  0.81427670  0.81904725    -0.23500
C640        C  0.71644351  0.80842339  0.80572937    -0.00500
H641        H  0.73686600  0.84337905  0.83308234     0.13300
H642        H  0.74189021  0.80469875  0.82652759     0.13300
N643        N  0.47038436  0.82159946  0.38293690    -0.26800
N644        N  0.46120267  0.81904288  0.40042984    -0.34700
C645        C  0.44131321  0.81788694  0.39717098     0.01500
C646        C  0.43765090  0.81994514  0.37665781     0.07500
C647        C  0.45657488  0.82225535  0.36819582    -0.05600
H648        H  0.43028185  0.81640165  0.40903209     0.08200
H649        H  0.46011474  0.82450413  0.35246875     0.09400
Cu650      Cu  0.47602919  0.81880692  0.42833251     0.44200
Cu651      Cu  0.50136995  0.82482012  0.37987656     0.42000
Cu652      Cu  0.52981626  0.82529376  0.42667710     0.43900
N653        N  0.49384479  0.82094468  0.45432010    -0.34200
N654        N  0.51351267  0.82344876  0.45372748    -0.28500
C655        C  0.52046900  0.82462265  0.47275584    -0.04600
C656        C  0.50446690  0.82278741  0.48605384     0.07600
C657        C  0.48784583  0.82047357  0.47373822    -0.27400
H658        H  0.53604925  0.82674430  0.47663457     0.09100
H659        H  0.47245563  0.81865376  0.47855769     0.08200
N660        N  0.54284927  0.82683103  0.39787867    -0.35700
N661        N  0.53255366  0.82705345  0.38091399    -0.27800
C662        C  0.54544022  0.82815635  0.36524783    -0.03100
C663        C  0.56486272  0.82843034  0.37259887     0.05500
C664        C  0.56252675  0.82758333  0.39337968     0.03600
H665        H  0.54098777  0.82819782  0.34962523     0.08700
H666        H  0.57430375  0.82755829  0.40449784     0.07600
N667        N  0.47312608  0.81757293  0.61175564    -0.26800
N668        N  0.46303294  0.81870957  0.59474683    -0.34700
C669        C  0.44329778  0.81741037  0.59901055     0.01500
C670        C  0.44091336  0.81511015  0.61969128     0.07500
C671        C  0.46022565  0.81520514  0.62719777    -0.05600
H672        H  0.43155770  0.81774581  0.58785554     0.08200
H673        H  0.46460254  0.81399383  0.64279780     0.09400
Cu674      Cu  0.47742613  0.82129126  0.56671003     0.44200
Cu675      Cu  0.50400173  0.82012624  0.61304518     0.42000
Cu676      Cu  0.53273458  0.82573489  0.56679689     0.43900
N677        N  0.49523822  0.82281545  0.54062033    -0.34200
N678        N  0.51502971  0.82450732  0.54045735    -0.28500
C679        C  0.52136892  0.82487213  0.52110356    -0.04600
C680        C  0.50486991  0.82327520  0.50848520     0.07600
C681        C  0.48862521  0.82200822  0.52148544     0.01400
H682        H  0.53689167  0.82605405  0.51653084     0.09100
H683        H  0.47304592  0.82051993  0.51733293     0.08200
N684        N  0.54575276  0.82546590  0.59578098    -0.35700
N685        N  0.53483724  0.82347264  0.61232009    -0.27800
C686        C  0.54696076  0.82202334  0.62832010    -0.03100
C687        C  0.56660550  0.82336193  0.62189312     0.05500
C688        C  0.56531301  0.82532591  0.60107794     0.03600
H689        H  0.54186942  0.81875721  0.64344810     0.08700
H690        H  0.57765943  0.82511899  0.59050366     0.07600
N691        N  0.67598274  0.83705064  0.29663062    -0.03000
C692        C  0.66251759  0.84902443  0.30640327    -0.00400
C693        C  0.67253781  0.86269617  0.31837045    -0.23300
C694        C  0.69253417  0.85854187  0.31685014    -0.23500
C695        C  0.69431144  0.84256105  0.30383748    -0.00500
H696        H  0.66583578  0.87263964  0.32933367     0.13300
H697        H  0.70423260  0.86480122  0.32618199     0.13300
N698        N  0.67278719  0.81351322  0.17998567    -0.03000
C699        C  0.66792708  0.82538616  0.16408696    -0.00400
C700        C  0.66242103  0.81367131  0.14788312    -0.23300
C701        C  0.66452038  0.79410212  0.15364685    -0.23500
C702        C  0.67139717  0.79421156  0.17326731    -0.00500
H703        H  0.65845969  0.81885758  0.13298956     0.13300
H704        H  0.66210100  0.78117292  0.14410959     0.13300
N705        N  0.83161779  0.68938761  0.31927448    -0.03000
C706        C  0.84108786  0.67797645  0.33336446    -0.00400
C707        C  0.85267749  0.66349607  0.32409853    -0.23300
C708        C  0.84996236  0.66556555  0.30383382    -0.23500
C709        C  0.83692149  0.68133193  0.30129624    -0.00500
H710        H  0.86030800  0.65117244  0.33137998     0.13300
H711        H  0.85525184  0.65538915  0.29232432     0.13300
N712        N  0.82185310  0.80816931  0.32344337    -0.03000
C713        C  0.83558798  0.82133946  0.33106194    -0.00400
C714        C  0.82592600  0.83701396  0.34053396    -0.23300
C715        C  0.80580353  0.83368032  0.33856030    -0.23500
C716        C  0.80359306  0.81608952  0.32784012    -0.00500
H717        H  0.83281410  0.85050198  0.34643887     0.13300
H718        H  0.79410370  0.84425316  0.34228960     0.13300
N719        N  0.69358121  0.66331422  0.19114178    -0.03000
C720        C  0.68220521  0.64817171  0.19921269    -0.00400
C721        C  0.66979096  0.65560412  0.21409521    -0.23300
C722        C  0.67265722  0.67587441  0.21470802    -0.23500
C723        C  0.68695507  0.68037948  0.20030977    -0.00500
H724        H  0.65800272  0.64750559  0.22190205     0.13300
H725        H  0.66379739  0.68629369  0.22342258     0.13300
N726        N  0.80941347  0.65469438  0.17488000    -0.03000
C727        C  0.81830818  0.64328569  0.16059721    -0.00400
C728        C  0.83312991  0.63167770  0.16920574    -0.23300
C729        C  0.83384156  0.63664806  0.18918106    -0.23500
C730        C  0.81920692  0.65086868  0.19228361    -0.00500
H731        H  0.84435221  0.62306550  0.16125298     0.13300
H732        H  0.84530014  0.63217101  0.19972630     0.13300
N733        N  0.37917431  0.46141054  0.17799809    -0.26800
N734        N  0.39539255  0.45218790  0.17127459    -0.34700
C735        C  0.39000704  0.43388409  0.16453075     0.01500
C736        C  0.36955154  0.43131880  0.16743720     0.07500
C737        C  0.36322088  0.44907958  0.17607186    -0.05600
H738        H  0.40008080  0.42350125  0.15721283     0.08200
H739        H  0.34790554  0.45337206  0.17912489     0.09400
Cu740      Cu  0.42406555  0.46542675  0.16994166     0.44200
Cu741      Cu  0.37849414  0.49174029  0.18529319     0.42000
Cu742      Cu  0.42586823  0.51851218  0.17954832     0.43900
N743        N  0.45097931  0.48200927  0.17015293    -0.34200
N744        N  0.45157215  0.50151872  0.17382923    -0.28500
C745        C  0.47076060  0.50791318  0.17285939    -0.04600
C746        C  0.48295401  0.49170454  0.16834455     0.07600
C747        C  0.46983271  0.47552339  0.16676477     0.01400
H748        H  0.47548667  0.52328229  0.17521351     0.09100
H749        H  0.47371143  0.46015059  0.16333995     0.08200
N750        N  0.39810112  0.53255755  0.18328897    -0.35700
N751        N  0.38091846  0.52288191  0.18559695    -0.27800
C752        C  0.36592138  0.53633684  0.18661324    -0.03100
C753        C  0.37394079  0.55554214  0.18479117     0.05500
C754        C  0.39445443  0.55240230  0.18280418     0.03600
H755        H  0.35028376  0.53231127  0.18810106     0.08700
H756        H  0.40602698  0.56365228  0.18096555     0.07600
N757        N  0.60678728  0.45887832  0.15890833    -0.26800
N758        N  0.58980421  0.44903483  0.15624740    -0.34700
C759        C  0.59399767  0.42933790  0.15428287     0.01500
C760        C  0.61462123  0.42676499  0.15596475     0.07500
C761        C  0.62212895  0.44592106  0.15884317    -0.05600
H762        H  0.58279474  0.41767964  0.15268362     0.08200
H763        H  0.63758699  0.45020472  0.16114664     0.09400
Cu764      Cu  0.56198015  0.46355031  0.15741216     0.44200
Cu765      Cu  0.60844882  0.48928305  0.16382326     0.42000
Cu766      Cu  0.56364118  0.51880230  0.16574519     0.43900
N767        N  0.53663093  0.48172375  0.16136178    -0.34200
N768        N  0.53714272  0.50139914  0.16437776    -0.28500
C769        C  0.51820331  0.50793731  0.16711147    -0.04600
C770        C  0.50512593  0.49171518  0.16578861     0.07600
C771        C  0.51740936  0.47539092  0.16208951     0.01400
H772        H  0.51425166  0.52337454  0.17013455     0.09100
H773        H  0.51274093  0.45991704  0.16038067     0.08200
N774        N  0.59261745  0.53120365  0.16885042    -0.35700
N775        N  0.60873283  0.51974515  0.16864807    -0.27800
C776        C  0.62501438  0.53091143  0.17258324    -0.03100
C777        C  0.61914967  0.55054130  0.17509558     0.05500
C778        C  0.59846078  0.55029353  0.17269233     0.03600
H779        H  0.64003357  0.52505241  0.17395366     0.08700
H780        H  0.58838555  0.56283346  0.17452586     0.07600
N781        N  0.32268225  0.84347072  0.30989643    -0.03000
C782        C  0.33867569  0.85133251  0.31985680    -0.00400
C783        C  0.33221779  0.86582865  0.33327806    -0.23300
C784        C  0.31176987  0.86682389  0.33175602    -0.23500
C785        C  0.30629655  0.85288988  0.31749538    -0.00500
H786        H  0.34123822  0.87339935  0.34445551     0.13300
H787        H  0.30184934  0.87559301  0.34114494     0.13300
N788        N  0.31122451  0.81692841  0.19472389    -0.03000
C789        C  0.31020044  0.82780585  0.17722990    -0.00400
C790        C  0.30171491  0.81636421  0.16214239    -0.23300
C791        C  0.29756540  0.79791296  0.17011030    -0.23500
C792        C  0.30373933  0.79840087  0.18986427    -0.00500
H793        H  0.29933299  0.82086023  0.14668564     0.13300
H794        H  0.29191226  0.78503961  0.16196171     0.13300
N795        N  0.18188506  0.69842258  0.31855423    -0.03000
C796        C  0.18276024  0.68237812  0.33137604    -0.00400
C797        C  0.18950668  0.66549262  0.32147540    -0.23300
C798        C  0.19292079  0.67093621  0.30195228    -0.23500
C799        C  0.18806444  0.69098839  0.30043742    -0.00500
H800        H  0.19127818  0.65061078  0.32777579     0.13300
H801        H  0.19759896  0.66110247  0.28989077     0.13300
N802        N  0.17840805  0.81613034  0.33477065    -0.03000
C803        C  0.16276183  0.82663598  0.34261303    -0.00400
C804        C  0.16987245  0.84135463  0.35545781    -0.23300
C805        C  0.19033370  0.84031827  0.35515348    -0.23500
C806        C  0.19521157  0.82487918  0.34231638    -0.00500
H807        H  0.16118014  0.85318212  0.36236640     0.13300
H808        H  0.20058769  0.85077582  0.36217337     0.13300
N809        N  0.30129200  0.66780615  0.20637035    -0.03000
C810        C  0.31208282  0.65168114  0.21253088    -0.00400
C811        C  0.32358017  0.65682541  0.22900061    -0.23300
C812        C  0.31996991  0.67667050  0.23302683    -0.23500
C813        C  0.30633812  0.68321465  0.21889739    -0.00500
H814        H  0.33458557  0.64750004  0.23636680     0.13300
H815        H  0.32729165  0.68561265  0.24443301     0.13300
N816        N  0.19999559  0.70221343  0.16956769    -0.03000
C817        C  0.19093509  0.70825276  0.15236359    -0.00400
C818        C  0.17981933  0.72534743  0.15593739    -0.23300
C819        C  0.18194458  0.72993172  0.17592490    -0.23500
C820        C  0.19435793  0.71552241  0.18406100    -0.00500
H821        H  0.16975789  0.73262966  0.14552251     0.13300
H822        H  0.17438174  0.74188008  0.18387598     0.13300
N823        N  0.96877557  0.88969019  0.31881851    -0.26800
N824        N  0.95863960  0.90646793  0.31583470    -0.34700
C825        C  0.93904111  0.90177082  0.31413469     0.01500
C826        C  0.93663254  0.88110478  0.31631797     0.07500
C827        C  0.95587475  0.87403171  0.31939273    -0.05600
H828        H  0.92736179  0.91261611  0.31135117     0.08200
H829        H  0.96029260  0.85851237  0.32104677     0.09400
Cu830      Cu  0.97206824  0.93517336  0.31368195     0.44200
Cu831      Cu  0.99999113  0.88847395  0.31983590     0.42000
Cu832      Cu  0.02625040  0.93598131  0.31247762     0.43900
N833        N  0.98912615  0.96191175  0.31220987    -0.34200
N834        N  0.00894515  0.96210290  0.31182297    -0.28500
C835        C  0.01545286  0.98132160  0.31133405    -0.04600
C836        C  0.99900753  0.99397110  0.31138399     0.07600
C837        C  0.98257423  0.98107656  0.31190957     0.01400
H838        H  0.03105181  0.98576391  0.31107222     0.09100
H839        H  0.96696817  0.98533860  0.31228955     0.08200
N840        N  0.04053816  0.90812544  0.31436262    -0.35700
N841        N  0.03108780  0.89089185  0.31741512    -0.27800
C842        C  0.04466721  0.87597568  0.31818892    -0.03100
C843        C  0.06367214  0.88410883  0.31538857     0.05500
C844        C  0.06032973  0.90458240  0.31304092     0.03600
H845        H  0.04089732  0.86032971  0.32046447     0.08700
H846        H  0.07147302  0.91621565  0.31085657     0.07600
N847        N  0.02722230  0.12135112  0.31286622    -0.26800
N848        N  0.03752789  0.10451283  0.31477725    -0.34700
C849        C  0.05711917  0.10921370  0.31624325     0.01500
C850        C  0.05934246  0.12992973  0.31496006     0.07500
C851        C  0.04002137  0.13706967  0.31273475    -0.05600
H852        H  0.06896891  0.09827427  0.31754192     0.08200
H853        H  0.03554415  0.15258597  0.31122226     0.09400
Cu854      Cu  0.02488680  0.07550283  0.31417236     0.44200
Cu855      Cu  0.99611382  0.12261289  0.31071050     0.42000
Cu856      Cu  0.97134823  0.07410152  0.30911776     0.43900
N857        N  0.00852134  0.04847977  0.31231606    -0.34200
N858        N  0.98879244  0.04812290  0.31062509    -0.28500
C859        C  0.98248149  0.02886476  0.31001677    -0.04600
C860        C  0.99896852  0.01634474  0.31129806     0.07600
C861        C  0.01524778  0.02936835  0.31270386     0.01400
H862        H  0.96697785  0.02430583  0.30870556     0.09100
H863        H  0.03083340  0.02523990  0.31405485     0.08200
N864        N  0.95626434  0.10155074  0.30777636    -0.35700
N865        N  0.96512868  0.11931709  0.30873018    -0.27800
C866        C  0.95109512  0.13379565  0.30739858    -0.03100
C867        C  0.93248071  0.12472569  0.30525244     0.05500
C868        C  0.93644756  0.10426886  0.30559561     0.03600
H869        H  0.95428978  0.14973002  0.30731941     0.08700
H870        H  0.92569251  0.09215628  0.30428108     0.07600
N871        N  0.30040981  0.31661056  0.14896939    -0.03000
C872        C  0.31228755  0.33115025  0.14061004    -0.00400
C873        C  0.32648593  0.32216938  0.12827330    -0.23300
C874        C  0.32360168  0.30185952  0.12940040    -0.23500
C875        C  0.30770245  0.29870023  0.14231691    -0.00500
H876        H  0.33888324  0.32935065  0.12055910     0.13300
H877        H  0.33279326  0.29054671  0.12228863     0.13300
N878        N  0.18713379  0.29963343  0.17406247    -0.03000
C879        C  0.17087802  0.29530301  0.16234301    -0.00400
C880        C  0.15605793  0.28605794  0.17365352    -0.23300
C881        C  0.16302514  0.28463883  0.19291856    -0.23500
C882        C  0.18183524  0.29322878  0.19289900    -0.00500
H883        H  0.14142222  0.28136601  0.16847909     0.13300
H884        H  0.15478949  0.27903698  0.20582428     0.13300
N885        N  0.32403283  0.18502504  0.28947487    -0.03000
C886        C  0.33811915  0.18799541  0.30389174    -0.00400
C887        C  0.32955401  0.19649361  0.32082183    -0.23300
C888        C  0.30966399  0.19908099  0.31678512    -0.23500
C889        C  0.30666134  0.19197970  0.29757108    -0.00500
H890        H  0.33689380  0.19963593  0.33496502     0.13300
H891        H  0.29837321  0.20447014  0.32714663     0.13300
N892        N  0.30610418  0.16589791  0.17388153    -0.03000
C893        C  0.30088576  0.15007978  0.16180691    -0.00400
C894        C  0.29060467  0.15650610  0.14507519    -0.23300
C895        C  0.28937295  0.17684607  0.14636741    -0.23500
C896        C  0.29901502  0.18242409  0.16382937    -0.00500
H897        H  0.28578833  0.14740403  0.13250737     0.13300
H898        H  0.28337551  0.18674165  0.13496403     0.13300
N899        N  0.17361807  0.19683671  0.28802890    -0.03000
C900        C  0.15758010  0.18518485  0.28309364    -0.00400
C901        C  0.16325531  0.17004864  0.27016523    -0.23300
C902        C  0.18335697  0.17229065  0.26689937    -0.23500
C903        C  0.18954094  0.18869405  0.27806391    -0.00500
H904        H  0.15393104  0.15793731  0.26464388     0.13300
H905        H  0.19262962  0.16246780  0.25790367     0.13300
N906        N  0.21262890  0.29987096  0.32119935    -0.03000
C907        C  0.21998281  0.31248517  0.33557174    -0.00400
C908        C  0.23547137  0.32394291  0.32753782    -0.23300
C909        C  0.23753854  0.31857120  0.30779805    -0.23500
C910        C  0.22340763  0.30387849  0.30418038    -0.00500
H911        H  0.24334354  0.33621771  0.33469162     0.13300
H912        H  0.24744474  0.32554747  0.29689600     0.13300
C913        C  0.17301721  0.21635309  0.29743582    -0.04800
C914        C  0.16232914  0.23184868  0.28806229    -0.04700
C915        C  0.16530012  0.25188773  0.29362380    -0.22900
C916        C  0.17922204  0.25683716  0.30857367     0.19300
C917        C  0.18903639  0.24126733  0.31911114     0.16600
C918        C  0.18560615  0.22106098  0.31370142    -0.17900
C919        C  0.20341869  0.24627201  0.33361453    -0.19700
C920        C  0.20953095  0.26626616  0.33607873    -0.12300
C921        C  0.20122470  0.28162467  0.32430539     0.04400
C922        C  0.18497167  0.27698491  0.31170625    -0.24400
H923        H  0.15274558  0.22851963  0.27539888     0.09500
H924        H  0.15768569  0.26357786  0.28532317     0.13100
H925        H  0.19399429  0.20916192  0.32087515     0.13000
H926        H  0.21103056  0.23460475  0.34194722     0.12800
H927        H  0.22208986  0.26952267  0.34580780     0.13300
H928        H  0.17858010  0.28876563  0.30251638     0.15200
C929        C  0.28639242  0.18876758  0.28954389    -0.04800
C930        C  0.27906590  0.16909083  0.28815025    -0.04700
C931        C  0.25876895  0.16549055  0.28500540    -0.22900
C932        C  0.24538764  0.18156287  0.28359802     0.19300
C933        C  0.25255881  0.20150586  0.28455994     0.16600
C934        C  0.27310911  0.20500146  0.28763461    -0.17900
C935        C  0.23893373  0.21746101  0.28296776    -0.19700
C936        C  0.21839422  0.21361461  0.28064959    -0.12300
C937        C  0.21111733  0.19378255  0.28052541     0.04400
C938        C  0.22486084  0.17789605  0.28182249    -0.24400
H939        H  0.28880704  0.15644656  0.29088229     0.09500
H940        H  0.25342464  0.15012165  0.28445401     0.13100
H941        H  0.27866477  0.22021255  0.28936236     0.13000
H942        H  0.24415470  0.23287157  0.28343343     0.12800
H943        H  0.20831520  0.22612936  0.27876921     0.13300
H944        H  0.21953486  0.16250204  0.28174022     0.15200
C945        C  0.32724686  0.18171660  0.26827021    -0.04800
C946        C  0.33503747  0.19741501  0.25647173    -0.04700
C947        C  0.33431980  0.19652212  0.23547374    -0.22900
C948        C  0.32526043  0.18013396  0.22581682     0.19300
C949        C  0.31794425  0.16396118  0.23749556     0.16600
C950        C  0.31938313  0.16464648  0.25864064    -0.17900
C951        C  0.30834701  0.14794872  0.22784788    -0.19700
C952        C  0.30510055  0.14843602  0.20705032    -0.12300
C953        C  0.31191517  0.16462083  0.19505184     0.04400
C954        C  0.32257883  0.18007544  0.20484516    -0.24400
H955        H  0.34070588  0.21085472  0.26361286     0.09500
H956        H  0.33996614  0.20919816  0.22677597     0.13100
H957        H  0.31352870  0.15234158  0.26761943     0.13000
H958        H  0.30244853  0.13538966  0.23654573     0.12800
H959        H  0.29633115  0.13652150  0.20063926     0.13300
H960        H  0.32871103  0.19267803  0.19637803     0.15200
C961        C  0.19230193  0.29792567  0.21187259    -0.04800
C962        C  0.19666686  0.31793120  0.21670290    -0.04700
C963        C  0.20448474  0.32278698  0.23551053    -0.22900
C964        C  0.20818128  0.30765832  0.24969432     0.19300
C965        C  0.20467183  0.28734511  0.24468101     0.16600
C966        C  0.19650639  0.28261374  0.22581917    -0.17900
C967        C  0.20902234  0.27226165  0.25879609    -0.19700
C968        C  0.21597934  0.27736601  0.27798548    -0.12300
C969        C  0.21805206  0.29761022  0.28348906     0.04400
C970        C  0.21476206  0.31260833  0.26901400    -0.24400
H971        H  0.19337889  0.32985280  0.20613654     0.09500
H972        H  0.20724464  0.33841109  0.23911951     0.13100
H973        H  0.19317490  0.26713076  0.22204007     0.13000
H974        H  0.20681307  0.25658218  0.25507869     0.12800
H975        H  0.21928160  0.26555183  0.28865413     0.13300
H976        H  0.21668870  0.32826928  0.27303411     0.15200
C977        C  0.30204744  0.27828403  0.14964754    -0.04800
C978        C  0.28204252  0.27172772  0.15077674    -0.04700
C979        C  0.27744445  0.25213464  0.15705789    -0.22900
C980        C  0.29282112  0.23842003  0.16121897     0.19300
C981        C  0.31295964  0.24472479  0.15951922     0.16600
C982        C  0.31738380  0.26465480  0.15432630    -0.17900
C983        C  0.32837764  0.23069559  0.16167667    -0.19700
C984        C  0.32385927  0.21037865  0.16435346    -0.12300
C985        C  0.30396495  0.20390713  0.16689194     0.04400
C986        C  0.28848545  0.21817971  0.16557146    -0.24400
H987        H  0.26996595  0.28156302  0.14641756     0.09500
H988        H  0.26189937  0.24746068  0.15780220     0.13100
H989        H  0.33289937  0.26940719  0.15324494     0.13000
H990        H  0.34389050  0.23519793  0.15982929     0.12800
H991        H  0.33587109  0.19956579  0.16354538     0.13300
H992        H  0.27302833  0.21315054  0.16613245     0.15200
C993        C  0.20668411  0.30757347  0.16815573    -0.04800
C994        C  0.20906299  0.32083487  0.15178045    -0.04700
C995        C  0.22820059  0.32728892  0.14564197    -0.22900
C996        C  0.24533456  0.32134928  0.15627883     0.19300
C997        C  0.24301616  0.30930509  0.17359321     0.16600
C998        C  0.22402207  0.30187315  0.17881919    -0.17900
C999        C  0.25987922  0.30410045  0.18495740    -0.19700
C1000       C  0.27906646  0.30911246  0.17813590    -0.12300
C1001       C  0.28171990  0.31888768  0.15961138     0.04400
C1002       C  0.26478137  0.32609206  0.14932337    -0.24400
H1003       H  0.19624157  0.32623698  0.14358454     0.09500
H1004       H  0.22960046  0.33683329  0.13250415     0.13100
H1005       H  0.22302146  0.29102735  0.19086905     0.13000
H1006       H  0.25829842  0.29523099  0.19854718     0.12800
H1007       H  0.29194421  0.30350865  0.18620455     0.13300
H1008       H  0.26676934  0.33366699  0.13501998     0.15200
C1009       C  0.13801370  0.18416684  0.29347215    -0.04800
C1010       C  0.12117095  0.19284149  0.28447395    -0.04700
C1011       C  0.10188755  0.18558454  0.28886172    -0.22900
C1012       C  0.09925216  0.16899857  0.30172864     0.19300
C1013       C  0.11608349  0.16085778  0.31159128     0.16600
C1014       C  0.13524189  0.16885148  0.30780268    -0.17900
C1015       C  0.11374082  0.14377629  0.32374185    -0.19700
C1016       C  0.09516566  0.13411350  0.32518097    -0.12300
C1017       C  0.07841582  0.14158021  0.31492132     0.04400
C1018       C  0.08041061  0.15953127  0.30378788    -0.24400
H1019       H  0.12303587  0.20413599  0.27287625     0.09500
H1020       H  0.08920619  0.19198887  0.28107096     0.13100
H1021       H  0.14826359  0.16162756  0.31424016     0.13000
H1022       H  0.12647881  0.13735658  0.33143600     0.12800
H1023       H  0.09397183  0.12055251  0.33411551     0.13300
H1024       H  0.06764645  0.16539928  0.29570617     0.15200
C1025       C  0.28579895  0.66836874  0.19135951    -0.04800
C1026       C  0.28779755  0.68126016  0.17475365    -0.04700
C1027       C  0.27086582  0.68774980  0.16426096    -0.22900
C1028       C  0.25164359  0.68168336  0.17047517     0.19300
C1029       C  0.24963848  0.66720560  0.18594586     0.16600
C1030       C  0.26682551  0.66031346  0.19601240    -0.17900
C1031       C  0.23040177  0.66151554  0.19249178    -0.19700
C1032       C  0.21348162  0.67161434  0.18535624    -0.12300
C1033       C  0.21553397  0.68736735  0.17144347     0.04400
C1034       C  0.23449350  0.69137096  0.16302749    -0.24400
H1035       H  0.30228118  0.68770101  0.17111830     0.09500
H1036       H  0.27270654  0.69875362  0.15237457     0.13100
H1037       H  0.26524022  0.65059242  0.20901189     0.13000
H1038       H  0.22854857  0.65038671  0.20425818     0.12800
H1039       H  0.19898934  0.66841865  0.19200860     0.13300
H1040       H  0.23610794  0.70364550  0.15241554     0.15200
C1041       C  0.14317916  0.82974054  0.33267851    -0.04800
C1042       C  0.12612925  0.81888285  0.33868294    -0.04700
C1043       C  0.10688779  0.82627013  0.33457060    -0.22900
C1044       C  0.10445194  0.84501226  0.32508518     0.19300
C1045       C  0.12157411  0.85551503  0.31821838     0.16600
C1046       C  0.14070200  0.84755234  0.32155864    -0.17900
C1047       C  0.11942776  0.87449207  0.30938910    -0.19700
C1048       C  0.10059954  0.88344221  0.30813554    -0.12300
C1049       C  0.08338055  0.87355871  0.31544169     0.04400
C1050       C  0.08540249  0.85397968  0.32339715    -0.24400
H1051       H  0.12764036  0.80543918  0.34769621     0.09500
H1052       H  0.09395755  0.81795291  0.33995617     0.13100
H1053       H  0.15382721  0.85624658  0.31728022     0.13000
H1054       H  0.13242832  0.88274008  0.30404288     0.12800
H1055       H  0.09963868  0.89828150  0.30159233     0.13300
H1056       H  0.07237332  0.84609692  0.32916087     0.15200
C1057       C  0.19772277  0.71340274  0.20605881    -0.04800
C1058       C  0.21655144  0.70841564  0.21389294    -0.04700
C1059       C  0.21877392  0.70431451  0.23439239    -0.22900
C1060       C  0.20232267  0.70579656  0.24749649     0.19300
C1061       C  0.18370555  0.71242397  0.24006133     0.16600
C1062       C  0.18152675  0.71610848  0.21940810    -0.17900
C1063       C  0.16738748  0.71446654  0.25328862    -0.19700
C1064       C  0.16919659  0.70888380  0.27349181    -0.12300
C1065       C  0.18728891  0.70110900  0.28066064     0.04400
C1066       C  0.20395051  0.70007612  0.26773032    -0.24400
H1067       H  0.22950137  0.70733018  0.20414831     0.09500
H1068       H  0.23327941  0.69968704  0.23993048     0.13100
H1069       H  0.16697584  0.72028648  0.21361448     0.13000
H1070       H  0.15305021  0.71969502  0.24785387     0.12800
H1071       H  0.15618745  0.70956479  0.28324040     0.13300
H1072       H  0.21793710  0.69403635  0.27327691     0.15200
C1073       C  0.17764711  0.71934616  0.32314030    -0.04800
C1074       C  0.16349756  0.72473600  0.33789294    -0.04700
C1075       C  0.15991547  0.74498642  0.34244062    -0.22900
C1076       C  0.17001121  0.76035407  0.33196636     0.19300
C1077       C  0.18378394  0.75519485  0.31671855     0.16600
C1078       C  0.18784767  0.73488453  0.31279742    -0.17900
C1079       C  0.19361816  0.77045262  0.30588835    -0.19700
C1080       C  0.19054885  0.79063896  0.31074175    -0.12300
C1081       C  0.17777027  0.79601556  0.32663801     0.04400
C1082       C  0.16712641  0.78073562  0.33687971    -0.24400
H1083       H  0.15500773  0.71337479  0.34584220     0.09500
H1084       H  0.14918089  0.74862643  0.35411510     0.13100
H1085       H  0.19934211  0.73126422  0.30191981     0.13000
H1086       H  0.20405088  0.76675997  0.29395485     0.12800
H1087       H  0.19880465  0.80208814  0.30259996     0.13300
H1088       H  0.15758360  0.78464523  0.34945915     0.15200
C1089       C  0.30578996  0.77950765  0.20150816    -0.04800
C1090       C  0.32455394  0.77386037  0.20896876    -0.04700
C1091       C  0.32789044  0.75411896  0.21527607    -0.22900
C1092       C  0.31250141  0.73973228  0.21415340     0.19300
C1093       C  0.29318948  0.74559433  0.20797530     0.16600
C1094       C  0.28994942  0.76547597  0.20172918    -0.17900
C1095       C  0.27774507  0.73123098  0.20723351    -0.19700
C1096       C  0.28167560  0.71104486  0.21154068    -0.12300
C1097       C  0.30118161  0.70480233  0.21620329     0.04400
C1098       C  0.31635003  0.71943139  0.21819294    -0.24400
H1099       H  0.33698271  0.78435924  0.20867119     0.09500
H1100       H  0.34274511  0.74988718  0.22014919     0.13100
H1101       H  0.27543088  0.76977552  0.19594465     0.13000
H1102       H  0.26272987  0.73552526  0.20293549     0.12800
H1103       H  0.26948484  0.70033238  0.21097424     0.13300
H1104       H  0.33142442  0.71490793  0.22204428     0.15200
C1105       C  0.21578413  0.82263239  0.33447372    -0.04800
C1106       C  0.22912530  0.80925634  0.34355460    -0.04700
C1107       C  0.24973942  0.81096616  0.33991162    -0.22900
C1108       C  0.25724055  0.82637105  0.32748130     0.19300
C1109       C  0.24375460  0.83921451  0.31744675     0.16600
C1110       C  0.22309373  0.83706921  0.32083212    -0.17900
C1111       C  0.25121794  0.85495042  0.30544348    -0.19700
C1112       C  0.27183168  0.85869906  0.30438050    -0.12300
C1113       C  0.28525756  0.84648801  0.31488265     0.04400
C1114       C  0.27792926  0.83006466  0.32604475    -0.24400
H1115       H  0.22369358  0.79826442  0.35431143     0.09500
H1116       H  0.25987123  0.80097448  0.34768684     0.13100
H1117       H  0.21276703  0.84762640  0.31409613     0.13000
H1118       H  0.24107383  0.86496033  0.29770444     0.12800
H1119       H  0.27726653  0.87161698  0.29604633     0.13300
H1120       H  0.28829031  0.82095640  0.33459723     0.15200
C1121       C  0.32278384  0.83311597  0.29080643    -0.04800
C1122       C  0.30962176  0.81695580  0.28765667    -0.04700
C1123       C  0.30489487  0.81065815  0.26821091    -0.22900
C1124       C  0.31367092  0.82006806  0.25145391     0.19300
C1125       C  0.32822096  0.83519003  0.25432898     0.16600
C1126       C  0.33264276  0.84172057  0.27403351    -0.17900
C1127       C  0.33744141  0.84396450  0.23738636    -0.19700
C1128       C  0.33216843  0.83790126  0.21784958    -0.12300
C1129       C  0.31712821  0.82336184  0.21478752     0.04400
C1130       C  0.30783183  0.81477631  0.23189449    -0.24400
H1131       H  0.30219433  0.80983306  0.30027002     0.09500
H1132       H  0.29399586  0.79873287  0.26627039     0.13100
H1133       H  0.34266751  0.85433763  0.27625032     0.13000
H1134       H  0.34879412  0.85546484  0.23923967     0.12800
H1135       H  0.34001429  0.84451262  0.20521409     0.13300
H1136       H  0.29575840  0.80407258  0.23006820     0.15200
C1137       C  0.31468518  0.35249191  0.14727221    -0.04800
C1138       C  0.31101330  0.35834820  0.16727293    -0.04700
C1139       C  0.31916826  0.37632534  0.17482950    -0.22900
C1140       C  0.33182998  0.38831873  0.16278182     0.19300
C1141       C  0.33472340  0.38301823  0.14243155     0.16600
C1142       C  0.32535452  0.36583980  0.13465754    -0.17900
C1143       C  0.34814150  0.39408373  0.13047271    -0.19700
C1144       C  0.35934877  0.40969764  0.13879483    -0.12300
C1145       C  0.35681444  0.41512796  0.15900534     0.04400
C1146       C  0.34251902  0.40479913  0.17084944    -0.24400
H1147       H  0.30311446  0.34846637  0.17752070     0.09500
H1148       H  0.31669902  0.38010587  0.19048236     0.13100
H1149       H  0.32798962  0.36190042  0.11906580     0.13000
H1150       H  0.35060836  0.39011447  0.11486119     0.12800
H1151       H  0.37008557  0.41759400  0.12939726     0.13300
H1152       H  0.34054794  0.40888786  0.18650210     0.15200
C1153       C  0.36318906  0.57519883  0.18492752    -0.04800
C1154       C  0.37373443  0.59303840  0.18059678    -0.04700
C1155       C  0.36449140  0.61172052  0.18222077    -0.22900
C1156       C  0.34447195  0.61310035  0.18835909     0.19300
C1157       C  0.33327772  0.59540907  0.19192884     0.16600
C1158       C  0.34264562  0.57652916  0.18999005    -0.17900
C1159       C  0.31329350  0.59703802  0.19853520    -0.19700
C1160       C  0.30517059  0.61590320  0.20322959    -0.12300
C1161       C  0.31669946  0.63339981  0.20080258     0.04400
C1162       C  0.33597773  0.63191116  0.19239927    -0.24400
H1163       H  0.38934168  0.59273582  0.17625540     0.09500
H1164       H  0.37324957  0.62516011  0.17934322     0.13100
H1165       H  0.33415086  0.56304334  0.19330395     0.13000
H1166       H  0.30439759  0.58367608  0.20131147     0.12800
H1167       H  0.29047673  0.61669514  0.21012117     0.13300
H1168       H  0.34510407  0.64535112  0.19093759     0.15200
C1169       C  0.67611184  0.62926045  0.18917428    -0.04800
C1170       C  0.66785450  0.63007244  0.16977761    -0.04700
C1171       C  0.65552031  0.61453159  0.16275615    -0.22900
C1172       C  0.65082790  0.59810728  0.17520427     0.19300
C1173       C  0.65978427  0.59674516  0.19439885     0.16600
C1174       C  0.67252134  0.61216369  0.20111441    -0.17900
C1175       C  0.65510923  0.58044804  0.20696429    -0.19700
C1176       C  0.64161558  0.56568356  0.20065283    -0.12300
C1177       C  0.63228982  0.56708588  0.18183717     0.04400
C1178       C  0.63699007  0.58329436  0.16907233    -0.24400
H1179       H  0.66978717  0.64340735  0.16061440     0.09500
H1180       H  0.64884587  0.61586039  0.14799143     0.13100
H1181       H  0.67833760  0.61169425  0.21631542     0.13000
H1182       H  0.66181800  0.57916463  0.22172101     0.12800
H1183       H  0.63836845  0.55311211  0.21051467     0.13300
H1184       H  0.63008393  0.58420857  0.15437360     0.15200
C1185       C  0.71348875  0.66112863  0.18231646    -0.04800
C1186       C  0.71834901  0.64511165  0.16941301    -0.04700
C1187       C  0.73819642  0.64189210  0.16321992    -0.22900
C1188       C  0.75363985  0.65469669  0.16969899     0.19300
C1189       C  0.74885884  0.67147462  0.18161880     0.16600
C1190       C  0.72908008  0.67435997  0.18805559    -0.17900
C1191       C  0.76411410  0.68456574  0.18790357    -0.19700
C1192       C  0.78414263  0.68008249  0.18392744    -0.12300
C1193       C  0.78927430  0.66238284  0.17379829     0.04400
C1194       C  0.77386716  0.65031759  0.16568387    -0.24400
H1195       H  0.70703844  0.63470801  0.16435019     0.09500
H1196       H  0.74154118  0.62905001  0.15387301     0.13100
H1197       H  0.72618036  0.68638176  0.19850876     0.13000
H1198       H  0.76062348  0.69776725  0.19667733     0.12800
H1199       H  0.79569752  0.68990535  0.18974095     0.13300
H1200       H  0.77765663  0.63665910  0.15777779     0.15200
C1201       C  0.91774656  0.86918234  0.31429810    -0.04800
C1202       C  0.90264242  0.87593854  0.30132520    -0.04700
C1203       C  0.88448954  0.86553147  0.29967278    -0.22900
C1204       C  0.88075535  0.84836684  0.31137395     0.19300
C1205       C  0.89584011  0.84108344  0.32427500     0.16600
C1206       C  0.91443183  0.85132776  0.32537657    -0.17900
C1207       C  0.89157771  0.82437297  0.33660435    -0.19700
C1208       C  0.87218446  0.81602805  0.33723943    -0.12300
C1209       C  0.85692259  0.82374679  0.32504898     0.04400
C1210       C  0.86166485  0.83931915  0.31145862    -0.24400
H1211       H  0.90486474  0.88937808  0.29239158     0.09500
H1212       H  0.87308353  0.87132813  0.28971194     0.13100
H1213       H  0.92589866  0.84597796  0.33551827     0.13000
H1214       H  0.90286606  0.81858586  0.34669761     0.12800
H1215       H  0.86874494  0.80452199  0.34826636     0.13300
H1216       H  0.84981254  0.84580453  0.30246744     0.15200
C1217       C  0.82580055  0.68371288  0.28236989    -0.04800
C1218       C  0.80716561  0.67406176  0.28053772    -0.04700
C1219       C  0.80013538  0.66818639  0.26163195    -0.22900
C1220       C  0.81175404  0.67185031  0.24438928     0.19300
C1221       C  0.82941196  0.68359449  0.24600718     0.16600
C1222       C  0.83625093  0.68954255  0.26500901    -0.17900
C1223       C  0.84108399  0.68735931  0.22887510    -0.19700
C1224       C  0.83652021  0.67785338  0.21080410    -0.12300
C1225       C  0.82017275  0.66461793  0.20957123     0.04400
C1226       C  0.80716794  0.66243283  0.22603593    -0.24400
H1227       H  0.79908930  0.66921367  0.29386057     0.09500
H1228       H  0.78646474  0.65942198  0.26069999     0.13100
H1229       H  0.85077257  0.69673718  0.26645421     0.13000
H1230       H  0.85448991  0.69653191  0.22977801     0.12800
H1231       H  0.84654267  0.67975693  0.19808122     0.13300
H1232       H  0.79452338  0.65222639  0.22501256     0.15200
C1233       C  0.82636377  0.71034906  0.32171365    -0.04800
C1234       C  0.81273168  0.71654464  0.33653743    -0.04700
C1235       C  0.80865923  0.73702202  0.33934321    -0.22900
C1236       C  0.81837986  0.75173086  0.32756486     0.19300
C1237       C  0.83221471  0.74572928  0.31269952     0.16600
C1238       C  0.83596964  0.72515579  0.30978177    -0.17900
C1239       C  0.84235682  0.76043548  0.30127985    -0.19700
C1240       C  0.83897904  0.78094167  0.30469104    -0.12300
C1241       C  0.82512798  0.78710974  0.31928971     0.04400
C1242       C  0.81478556  0.77233606  0.33060432    -0.24400
H1243       H  0.80518624  0.70556925  0.34590562     0.09500
H1244       H  0.79805943  0.74137619  0.35088951     0.13100
H1245       H  0.84687558  0.72065208  0.29859179     0.13000
H1246       H  0.85307794  0.75607179  0.28985033     0.12800
H1247       H  0.84707403  0.79200716  0.29587369     0.13300
H1248       H  0.80429625  0.77696890  0.34214730     0.15200
C1249       C  0.69082258  0.70129847  0.19338940    -0.04800
C1250       C  0.69522741  0.70540031  0.17310203    -0.04700
C1251       C  0.69534608  0.72514100  0.16596398    -0.22900
C1252       C  0.69012123  0.74098043  0.17879947     0.19300
C1253       C  0.68644439  0.73711955  0.19932615     0.16600
C1254       C  0.68751093  0.71742493  0.20662199    -0.17900
C1255       C  0.68022994  0.75275606  0.21191145    -0.19700
C1256       C  0.67602745  0.77165153  0.20387291    -0.12300
C1257       C  0.67881353  0.77558020  0.18327800     0.04400
C1258       C  0.68701800  0.76029965  0.17112607    -0.24400
H1259       H  0.69758538  0.69332588  0.16249461     0.09500
H1260       H  0.69818420  0.72785593  0.15014524     0.13100
H1261       H  0.68443471  0.71455993  0.22236649     0.13000
H1262       H  0.67728443  0.75000801  0.22769841     0.12800
H1263       H  0.66945275  0.78248250  0.21382816     0.13300
H1264       H  0.68983134  0.76304159  0.15531004     0.15200
C1265       C  0.71200265  0.82921067  0.30513591    -0.04800
C1266       C  0.71263987  0.81495436  0.32071543    -0.04700
C1267       C  0.73086658  0.80656173  0.32672924    -0.22900
C1268       C  0.74875202  0.81198527  0.31695316     0.19300
C1269       C  0.74795828  0.82478076  0.29998154     0.16600
C1270       C  0.72973357  0.83380964  0.29459494    -0.17900
C1271       C  0.76569992  0.82965866  0.28972387    -0.19700
C1272       C  0.78419649  0.82369631  0.29741175    -0.12300
C1273       C  0.78530037  0.81318667  0.31569734     0.04400
C1274       C  0.76749596  0.80644206  0.32488847    -0.24400
H1275       H  0.69923370  0.81156989  0.32932636     0.09500
H1276       H  0.73109674  0.79665249  0.33965970     0.13100
H1277       H  0.72970570  0.84544494  0.28320736     0.13000
H1278       H  0.76537030  0.83916861  0.27649650     0.12800
H1279       H  0.79774638  0.82927305  0.29028828     0.13300
H1280       H  0.76824232  0.79857577  0.33914785     0.15200
C1281       C  0.67286661  0.82929675  0.27639176    -0.04800
C1282       C  0.65407900  0.82188885  0.27026988    -0.04700
C1283       C  0.64999550  0.81839805  0.24988300    -0.22900
C1284       C  0.66481818  0.82165527  0.23517675     0.19300
C1285       C  0.68413550  0.82768480  0.24115753     0.16600
C1286       C  0.68789380  0.83174867  0.26150770    -0.17900
C1287       C  0.69937709  0.82989046  0.22663994    -0.19700
C1288       C  0.69555509  0.82571681  0.20637996    -0.12300
C1289       C  0.67636487  0.81989554  0.20030302     0.04400
C1290       C  0.66083129  0.81863034  0.21463950    -0.24400
H1291       H  0.64229468  0.81918609  0.28112663     0.09500
H1292       H  0.63523740  0.81324521  0.24562188     0.13100
H1293       H  0.70221105  0.83780351  0.26537289     0.13000
H1294       H  0.71430505  0.83441233  0.23101434     0.12800
H1295       H  0.70759897  0.82670005  0.19546090     0.13300
H1296       H  0.64606441  0.81393444  0.20987350     0.15200
C1297       C  0.35802485  0.84109879  0.32337315    -0.04800
C1298       C  0.37519604  0.84651557  0.31240073    -0.04700
C1299       C  0.39434111  0.84174912  0.31965402    -0.22900
C1300       C  0.39661827  0.83204385  0.33833071     0.19300
C1301       C  0.37935393  0.82591432  0.34906364     0.16600
C1302       C  0.36025160  0.83015749  0.34135524    -0.17900
C1303       C  0.38143304  0.81673976  0.36792752    -0.19700
C1304       C  0.40036321  0.81438885  0.37652043    -0.12300
C1305       C  0.41774579  0.82097514  0.36641804     0.04400
C1306       C  0.41572691  0.82931557  0.34695893    -0.24400
H1307       H  0.37385531  0.85545533  0.29886438     0.09500
H1308       H  0.40737762  0.84663293  0.31119117     0.13100
H1309       H  0.34705489  0.82644770  0.35019909     0.13000
H1310       H  0.36833983  0.81190389  0.37634258     0.12800
H1311       H  0.40130550  0.80759533  0.39127250     0.13300
H1312       H  0.42886779  0.83454606  0.33889197     0.15200
C1313       C  0.64209037  0.84266471  0.31276304    -0.04800
C1314       C  0.62490499  0.85050262  0.30359056    -0.04700
C1315       C  0.60596821  0.84800305  0.31261861    -0.22900
C1316       C  0.60403915  0.83831090  0.33137417     0.19300
C1317       C  0.62129952  0.83024856  0.34051915     0.16600
C1318       C  0.64003153  0.83209768  0.33097843    -0.17900
C1319       C  0.61976963  0.82130657  0.35955130    -0.19700
C1320       C  0.60144128  0.82073378  0.36973183    -0.12300
C1321       C  0.58406752  0.82873830  0.36101870     0.04400
C1322       C  0.58541833  0.83721050  0.34154977    -0.24400
H1323       H  0.62624658  0.85912112  0.28982345     0.09500
H1324       H  0.59297433  0.85441327  0.30537164     0.13100
H1325       H  0.65333063  0.82652474  0.33841412     0.13000
H1326       H  0.63287983  0.81511825  0.36679295     0.12800
H1327       H  0.60088971  0.81389141  0.38449875     0.13300
H1328       H  0.57221179  0.84359070  0.33466653     0.15200
C1329       C  0.58405453  0.81686654  0.63392137    -0.04800
C1330       C  0.58472042  0.79684671  0.64041042    -0.04700
C1331       C  0.60022748  0.79010847  0.65262248    -0.22900
C1332       C  0.61540674  0.80330651  0.65872023     0.19300
C1333       C  0.61491989  0.82363605  0.65262343     0.16600
C1334       C  0.59914610  0.83035978  0.64016381    -0.17900
C1335       C  0.63051179  0.83655614  0.65872791    -0.19700
C1336       C  0.64702590  0.82902937  0.66944500    -0.12300
C1337       C  0.64800729  0.80856229  0.67451158     0.04400
C1338       C  0.63159357  0.79611693  0.66994678    -0.24400
H1339       H  0.57313758  0.78634373  0.63593966     0.09500
H1340       H  0.60046042  0.77446806  0.65712229     0.13100
H1341       H  0.59855162  0.84591795  0.63541799     0.13000
H1342       H  0.63044755  0.85221833  0.65431731     0.12800
H1343       H  0.65966946  0.83882324  0.67235732     0.13300
H1344       H  0.63229057  0.78026270  0.67362487     0.15200
C1345       C  0.68211926  0.81790728  0.70767683    -0.04800
C1346       C  0.69621644  0.83345747  0.70991780    -0.04700
C1347       C  0.70128328  0.84056838  0.72906266    -0.22900
C1348       C  0.69233885  0.83218543  0.74630363     0.19300
C1349       C  0.67654785  0.81816826  0.74408815     0.16600
C1350       C  0.67129639  0.81137603  0.72471010    -0.17900
C1351       C  0.66770585  0.80970099  0.76136767    -0.19700
C1352       C  0.67580067  0.81343001  0.78045088    -0.12300
C1353       C  0.69279036  0.82572177  0.78255697     0.04400
C1354       C  0.70016563  0.83607305  0.76556865    -0.24400
H1355       H  0.70473808  0.83861061  0.69700503     0.09500
H1356       H  0.71329591  0.85146051  0.73044146     0.13100
H1357       H  0.66052431  0.79927654  0.72309520     0.13000
H1358       H  0.65545900  0.79907693  0.76001014     0.12800
H1359       H  0.66989943  0.80540791  0.79336264     0.13300
H1360       H  0.71331574  0.84553433  0.76711354     0.15200
C1361       C  0.71991226  0.79581841  0.69180878    -0.04800
C1362       C  0.72508611  0.79644930  0.71225116    -0.04700
C1363       C  0.74519730  0.79808554  0.71796500    -0.22900
C1364       C  0.76042428  0.79849905  0.70331846     0.19300
C1365       C  0.75532332  0.79709760  0.68277602     0.16600
C1366       C  0.73517983  0.79598198  0.67720908    -0.17900
C1367       C  0.77043756  0.79693594  0.66807745    -0.19700
C1368       C  0.79049530  0.79865196  0.67362357    -0.12300
C1369       C  0.79570273  0.80079319  0.69390170     0.04400
C1370       C  0.78062700  0.80050507  0.70874751    -0.24400
H1371       H  0.71364985  0.79547934  0.72378705     0.09500
H1372       H  0.74884525  0.79885472  0.73381158     0.13100
H1373       H  0.73132830  0.79524080  0.66139552     0.13000
H1374       H  0.76672274  0.79579780  0.65226910     0.12800
H1375       H  0.80190635  0.79916911  0.66201342     0.13300
H1376       H  0.78464475  0.80218078  0.72444174     0.15200
C1377       C  0.83498946  0.70105300  0.68064820    -0.04800
C1378       C  0.81780808  0.70680854  0.69134419    -0.04700
C1379       C  0.81327965  0.72710229  0.69403949    -0.22900
C1380       C  0.82586477  0.74207290  0.68603429     0.19300
C1381       C  0.84240805  0.73655367  0.67406602     0.16600
C1382       C  0.84685881  0.71603602  0.67138812    -0.17900
C1383       C  0.85477665  0.75167276  0.66595990    -0.19700
C1384       C  0.85129112  0.77198290  0.67038157    -0.12300
C1385       C  0.83552662  0.77769016  0.68327482     0.04400
C1386       C  0.82271124  0.76238013  0.69071177    -0.24400
H1387       H  0.80844786  0.69555106  0.69849642     0.09500
H1388       H  0.80036780  0.73108575  0.70307640     0.13100
H1389       H  0.86037197  0.71176420  0.66346195     0.13000
H1390       H  0.86743501  0.74776959  0.65653487     0.12800
H1391       H  0.86121136  0.78305412  0.66387691     0.13300
H1392       H  0.81085127  0.76598789  0.70117603     0.15200
C1393       C  0.81419199  0.65565673  0.78908748    -0.04800
C1394       C  0.80283647  0.64464564  0.77528236    -0.04700
C1395       C  0.80491598  0.64818706  0.75465598    -0.22900
C1396       C  0.81877193  0.66247845  0.74758853     0.19300
C1397       C  0.82937054  0.67454524  0.76144803     0.16600
C1398       C  0.82680723  0.67119123  0.78218794    -0.17900
C1399       C  0.84363622  0.68844296  0.75430221    -0.19700
C1400       C  0.84859713  0.68909565  0.73380810    -0.12300
C1401       C  0.83901173  0.67622844  0.72022360     0.04400
C1402       C  0.82350421  0.66361479  0.72704391    -0.24400
H1403       H  0.79333941  0.63243392  0.78041847     0.09500
H1404       H  0.79668091  0.63883558  0.74421722     0.13100
H1405       H  0.83590265  0.67940349  0.79288611     0.13000
H1406       H  0.85185843  0.69785584  0.76469623     0.12800
H1407       H  0.86074099  0.69870672  0.72875488     0.13300
H1408       H  0.81634780  0.65343838  0.71654758     0.15200
C1409       C  0.69628743  0.71264680  0.80975900    -0.04800
C1410       C  0.70267761  0.71935479  0.82864204    -0.04700
C1411       C  0.70854200  0.73934891  0.83128571    -0.22900
C1412       C  0.70814355  0.75285098  0.81504045     0.19300
C1413       C  0.70271474  0.74597008  0.79574862     0.16600
C1414       C  0.69672557  0.72590799  0.79326116    -0.17900
C1415       C  0.70282957  0.75942952  0.77945018    -0.19700
C1416       C  0.70775135  0.77968030  0.78236469    -0.12300
C1417       C  0.71197462  0.78690614  0.80171831     0.04400
C1418       C  0.71256173  0.77322434  0.81789013    -0.24400
H1419       H  0.70209198  0.70940858  0.84153695     0.09500
H1420       H  0.71278912  0.74440460  0.84615603     0.13100
H1421       H  0.69164258  0.72075160  0.77868014     0.13000
H1422       H  0.69905927  0.75431150  0.76447159     0.12800
H1423       H  0.70825554  0.78962476  0.76949048     0.13300
H1424       H  0.71604827  0.77853831  0.83288160     0.15200
C1425       C  0.78835595  0.66368303  0.82711788    -0.04800
C1426       C  0.78457394  0.68075457  0.81535771    -0.04700
C1427       C  0.76495636  0.68645719  0.81091992    -0.22900
C1428       C  0.74864645  0.67533842  0.81840043     0.19300
C1429       C  0.75210408  0.65908095  0.83153205     0.16600
C1430       C  0.77197570  0.65331192  0.83582075    -0.17900
C1431       C  0.73560848  0.64845944  0.83942100    -0.19700
C1432       C  0.71595488  0.65377313  0.83417378    -0.12300
C1433       C  0.71230206  0.66940663  0.82038062     0.04400
C1434       C  0.72899888  0.67994602  0.81249520    -0.24400
H1435       H  0.79688973  0.68905960  0.80869975     0.09500
H1436       H  0.76255629  0.69922478  0.80111844     0.13100
H1437       H  0.77469579  0.63999464  0.84476149     0.13000
H1438       H  0.73789602  0.63604068  0.84968665     0.12800
H1439       H  0.70367821  0.64564236  0.84104665     0.13300
H1440       H  0.72689027  0.69149065  0.80128024     0.15200
C1441       C  0.27927262  0.65874543  0.80281735    -0.04800
C1442       C  0.26744737  0.64509013  0.79201541    -0.04700
C1443       C  0.24664644  0.64463642  0.79446111    -0.22900
C1444       C  0.23716782  0.65818174  0.80747476     0.19300
C1445       C  0.24885092  0.67157200  0.81900578     0.16600
C1446       C  0.26987217  0.67152959  0.81685776    -0.17900
C1447       C  0.23919314  0.68550155  0.83157298    -0.19700
C1448       C  0.21823322  0.68716446  0.83148036    -0.12300
C1449       C  0.20658841  0.67468222  0.81913238     0.04400
C1450       C  0.21618010  0.65945258  0.80808385    -0.24400
H1451       H  0.27413682  0.63554753  0.78078166     0.09500
H1452       H  0.23788854  0.63438397  0.78538262     0.13100
H1453       H  0.27885872  0.68210847  0.82531424     0.13000
H1454       H  0.24787708  0.69584349  0.84061619     0.12800
H1455       H  0.21119754  0.69898998  0.84008913     0.13300
H1456       H  0.20728902  0.64951972  0.79878582     0.15200
C1457       C  0.29329403  0.77474937  0.79814141    -0.04800
C1458       C  0.30930314  0.76944200  0.81058990    -0.04700
C1459       C  0.31516978  0.74952197  0.81235785    -0.22900
C1460       C  0.30482076  0.73449239  0.80198489     0.19300
C1461       C  0.28838695  0.73951355  0.78962226     0.16600
C1462       C  0.28265451  0.75975911  0.78779001    -0.17900
C1463       C  0.27806989  0.72415509  0.77945516    -0.19700
C1464       C  0.28423028  0.70412367  0.78130219    -0.12300
C1465       C  0.30075143  0.69928682  0.79333037     0.04400
C1466       C  0.31081152  0.71451852  0.80374164    -0.24400
H1467       H  0.31711232  0.78080326  0.81922098     0.09500
H1468       H  0.32767059  0.74584889  0.82200779     0.13100
H1469       H  0.26995810  0.76384285  0.77856892     0.13000
H1470       H  0.26549150  0.72767782  0.76987226     0.12800
H1471       H  0.27655987  0.69254086  0.77285771     0.13300
H1472       H  0.32363721  0.71078906  0.81296257     0.15200
C1473       C  0.42191132  0.81283676  0.63125923    -0.04800
C1474       C  0.40426292  0.82188702  0.62434865    -0.04700
C1475       C  0.38612133  0.81915439  0.63463214    -0.22900
C1476       C  0.38513355  0.80685892  0.65176624     0.19300
C1477       C  0.40283209  0.79791127  0.65909441     0.16600
C1478       C  0.42116320  0.80126083  0.64901862    -0.17900
C1479       C  0.40166274  0.78485028  0.67566571    -0.19700
C1480       C  0.38301804  0.77955083  0.68387384    -0.12300
C1481       C  0.36529050  0.78777127  0.67618925     0.04400
C1482       C  0.36655090  0.80216384  0.66074005    -0.24400
H1483       H  0.40448132  0.83108348  0.61090595     0.09500
H1484       H  0.37272100  0.82611552  0.62877000     0.13100
H1485       H  0.43462852  0.79405092  0.65442637     0.13000
H1486       H  0.41502297  0.77773263  0.68143250     0.12800
H1487       H  0.38229935  0.76798200  0.69532921     0.13300
H1488       H  0.35288135  0.80798926  0.65424786     0.15200
C1489       C  0.32500404  0.79692354  0.70181467    -0.04800
C1490       C  0.31086068  0.81249606  0.70242508    -0.04700
C1491       C  0.30462301  0.82074125  0.72078355    -0.22900
C1492       C  0.31262324  0.81381557  0.73898257     0.19300
C1493       C  0.32821809  0.79957835  0.73850866     0.16600
C1494       C  0.33432116  0.79127711  0.71999300    -0.17900
C1495       C  0.33655535  0.79296436  0.75668083    -0.19700
C1496       C  0.32830157  0.79895909  0.77509863    -0.12300
C1497       C  0.31146249  0.81149742  0.77574468     0.04400
C1498       C  0.30442621  0.81980454  0.75760983    -0.24400
H1499       H  0.30423516  0.81816431  0.68886769     0.09500
H1500       H  0.29301013  0.83204933  0.72077188     0.13100
H1501       H  0.34537506  0.77941750  0.71987010     0.13000
H1502       H  0.34878941  0.78233716  0.75665819     0.12800
H1503       H  0.33432115  0.79278916  0.78882424     0.13300
H1504       H  0.29137188  0.82940848  0.75793696     0.15200
C1505       C  0.29272428  0.77619979  0.67242275    -0.04800
C1506       C  0.27850646  0.76066841  0.67458131    -0.04700
C1507       C  0.25894632  0.76291709  0.66738380    -0.22900
C1508       C  0.25304136  0.78099425  0.65835507     0.19300
C1509       C  0.26708083  0.79681718  0.65653405     0.16600
C1510       C  0.28696411  0.79400406  0.66275027    -0.17900
C1511       C  0.26107599  0.81513574  0.64826893    -0.19700
C1512       C  0.24119978  0.81801463  0.64255126    -0.12300
C1513       C  0.22694327  0.80239218  0.64403400     0.04400
C1514       C  0.23340442  0.78354565  0.65110281    -0.24400
H1515       H  0.28277901  0.74647363  0.68124361     0.09500
H1516       H  0.24844521  0.75056058  0.66894113     0.13100
H1517       H  0.29812142  0.80532390  0.65921805     0.13000
H1518       H  0.27160872  0.82747320  0.64679563     0.12800
H1519       H  0.23695896  0.83275010  0.63722367     0.13300
H1520       H  0.22336021  0.77083375  0.65095268     0.15200
C1521       C  0.22168819  0.69075087  0.70965396    -0.04800
C1522       C  0.23236084  0.70215326  0.72377192    -0.04700
C1523       C  0.22653526  0.70212480  0.74404257    -0.22900
C1524       C  0.21042990  0.69008261  0.75052020     0.19300
C1525       C  0.20015374  0.67805831  0.73633365     0.16600
C1526       C  0.20564508  0.67873278  0.71601341    -0.17900
C1527       C  0.18450651  0.66551485  0.74265218    -0.19700
C1528       C  0.17833872  0.66560575  0.76265736    -0.12300
C1529       C  0.18769380  0.67816171  0.77673282     0.04400
C1530       C  0.20410729  0.69007387  0.77075544    -0.24400
H1531       H  0.24521784  0.71098301  0.71908431     0.09500
H1532       H  0.23473745  0.71128273  0.75466212     0.13100
H1533       H  0.19790500  0.66936293  0.70518198     0.13000
H1534       H  0.17668332  0.65602125  0.73202037     0.12800
H1535       H  0.16563647  0.65640045  0.76705478     0.13300
H1536       H  0.21123033  0.69994940  0.78154261     0.15200
C1537       C  0.20489103  0.70960745  0.66946584    -0.04800
C1538       C  0.19092586  0.71040657  0.65364715    -0.04700
C1539       C  0.18201291  0.72859942  0.64810493    -0.22900
C1540       C  0.18635718  0.74630311  0.65865171     0.19300
C1541       C  0.19828596  0.74528771  0.67607708     0.16600
C1542       C  0.20756675  0.72708705  0.68123393    -0.17900
C1543       C  0.20223217  0.76291565  0.68699750    -0.19700
C1544       C  0.19657222  0.78164604  0.67931071    -0.12300
C1545       C  0.18698472  0.78294070  0.66062740     0.04400
C1546       C  0.18054907  0.76517302  0.65114370    -0.24400
H1547       H  0.18727314  0.69721579  0.64501162     0.09500
H1548       H  0.17238552  0.72896348  0.63502905     0.13100
H1549       H  0.21823759  0.72715892  0.69339717     0.13000
H1550       H  0.21111912  0.76238139  0.70058313     0.12800
H1551       H  0.20165873  0.79517961  0.68673199     0.13300
H1552       H  0.17312657  0.76616555  0.63670818     0.15200
C1553       C  0.35517337  0.56347631  0.81333289    -0.04800
C1554       C  0.35864169  0.57643688  0.82957397    -0.04700
C1555       C  0.34761008  0.59411297  0.83165676    -0.22900
C1556       C  0.33350188  0.59951131  0.81705045     0.19300
C1557       C  0.32952592  0.58630542  0.80092195     0.16600
C1558       C  0.33999374  0.56807964  0.79949185    -0.17900
C1559       C  0.31647454  0.59234572  0.78559327    -0.19700
C1560       C  0.30908846  0.61197581  0.78520281    -0.12300
C1561       C  0.31365027  0.62549826  0.80071250     0.04400
C1562       C  0.32488111  0.61870829  0.81720916    -0.24400
H1563       H  0.37010010  0.57299131  0.84051700     0.09500
H1564       H  0.35088415  0.60407072  0.84409679     0.13100
H1565       H  0.33738339  0.55819873  0.78682242     0.13000
H1566       H  0.31347476  0.58253670  0.77296772     0.12800
H1567       H  0.30157599  0.61711634  0.77177071     0.13300
H1568       H  0.32916354  0.62932837  0.82878882     0.15200
C1569       C  0.62691128  0.57999497  0.82127905    -0.04800
C1570       C  0.61893472  0.59449766  0.83429659    -0.04700
C1571       C  0.62911212  0.61253363  0.83776620    -0.22900
C1572       C  0.64724982  0.61669007  0.82786302     0.19300
C1573       C  0.65577815  0.60213035  0.81506834     0.16600
C1574       C  0.64571725  0.58368226  0.81213740    -0.17900
C1575       C  0.67357528  0.60681226  0.80458999    -0.19700
C1576       C  0.68181335  0.62625862  0.80548033    -0.12300
C1577       C  0.67271333  0.64107952  0.81732581     0.04400
C1578       C  0.65610743  0.63577011  0.82934154    -0.24400
H1579       H  0.60473080  0.59191214  0.84178664     0.09500
H1580       H  0.62240191  0.62356288  0.84764457     0.13100
H1581       H  0.65202299  0.57265738  0.80199076     0.13000
H1582       H  0.68035096  0.59586663  0.79467157     0.12800
H1583       H  0.69427700  0.63014012  0.79573714     0.13300
H1584       H  0.64878251  0.64726517  0.83822439     0.15200
C1585       C  0.33079448  0.06883015  0.12154305    -0.04800
C1586       C  0.34440009  0.08438751  0.11717326    -0.04700
C1587       C  0.34342091  0.10268118  0.12744089    -0.22900
C1588       C  0.32839015  0.10600524  0.14184176     0.19300
C1589       C  0.31482495  0.09034412  0.14662927     0.16600
C1590       C  0.31642020  0.07170169  0.13680673    -0.17900
C1591       C  0.29899878  0.09408712  0.16002300    -0.19700
C1592       C  0.29565273  0.11353543  0.16718601    -0.12300
C1593       C  0.30874508  0.12934962  0.16214834     0.04400
C1594       C  0.32564307  0.12520596  0.15019122    -0.24400
H1595       H  0.35575226  0.08243941  0.10568017     0.09500
H1596       H  0.35390551  0.11452248  0.12350252     0.13100
H1597       H  0.30571175  0.05987640  0.14016454     0.13000
H1598       H  0.28827495  0.08236440  0.16365550     0.12800
H1599       H  0.28192387  0.11653597  0.17533976     0.13300
H1600       H  0.33522813  0.13751307  0.14539134     0.15200
C1601       C  0.33142268  0.90568359  0.12333224    -0.04800
C1602       C  0.34234843  0.88896973  0.11666243    -0.04700
C1603       C  0.34260685  0.87115728  0.12782696    -0.22900
C1604       C  0.33167726  0.86948531  0.14581404     0.19300
C1605       C  0.32101114  0.88621329  0.15311857     0.16600
C1606       C  0.32113880  0.90430971  0.14195038    -0.17900
C1607       C  0.30965453  0.88415244  0.17092412    -0.19700
C1608       C  0.30771868  0.86535683  0.18047364    -0.12300
C1609       C  0.31749403  0.84845962  0.17265423     0.04400
C1610       C  0.33018799  0.85094632  0.15584496    -0.24400
H1611       H  0.35070258  0.88959266  0.10269645     0.09500
H1612       H  0.35091198  0.85845800  0.12205760     0.13100
H1613       H  0.31257559  0.91698189  0.14735734     0.13000
H1614       H  0.30134222  0.89679101  0.17679912     0.12800
H1615       H  0.29748630  0.86372324  0.19304993     0.13300
H1616       H  0.33748822  0.83789312  0.14947369     0.15200
C1617       C  0.32673555  0.90009653  0.85703920    -0.04800
C1618       C  0.32805064  0.88170268  0.86737167    -0.04700
C1619       C  0.32306953  0.86363283  0.85790088    -0.22900
C1620       C  0.31655714  0.86350516  0.83787806     0.19300
C1621       C  0.31554836  0.88172729  0.82707360     0.16600
C1622       C  0.32076884  0.89986065  0.83665754    -0.17900
C1623       C  0.30860799  0.88154081  0.80710797    -0.19700
C1624       C  0.30180752  0.86362936  0.79831561    -0.12300
C1625       C  0.30225827  0.84561495  0.80919694     0.04400
C1626       C  0.31015789  0.84558090  0.82879083    -0.24400
H1627       H  0.33276362  0.88119157  0.88290147     0.09500
H1628       H  0.32392982  0.84976504  0.86639857     0.13100
H1629       H  0.31956576  0.91376724  0.82832667     0.13000
H1630       H  0.30766840  0.89537973  0.79858380     0.12800
H1631       H  0.29533779  0.86399683  0.78341347     0.13300
H1632       H  0.31009504  0.83173152  0.83740715     0.15200
C1633       C  0.67140756  0.20166336  0.26459422    -0.04800
C1634       C  0.68552531  0.18612039  0.26572448    -0.04700
C1635       C  0.69082543  0.17514818  0.24857714    -0.22900
C1636       C  0.68218925  0.17959052  0.22988950     0.19300
C1637       C  0.66687334  0.19411744  0.22882701     0.16600
C1638       C  0.66136959  0.20481433  0.24623457    -0.17900
C1639       C  0.65854566  0.19890077  0.21005747    -0.19700
C1640       C  0.66656709  0.19075769  0.19237235    -0.12300
C1641       C  0.68275978  0.17743281  0.19318338     0.04400
C1642       C  0.68974972  0.17103739  0.21206332    -0.24400
H1643       H  0.69316528  0.18304102  0.27967134     0.09500
H1644       H  0.70247256  0.16393887  0.24973254     0.13100
H1645       H  0.65059840  0.21687645  0.24508185     0.13000
H1646       H  0.64677319  0.20997834  0.20893501     0.12800
H1647       H  0.66122750  0.19603520  0.17795809     0.13300
H1648       H  0.70251237  0.16106485  0.21270120     0.15200
C1649       C  0.67063246  0.35028090  0.17858929    -0.04800
C1650       C  0.67996746  0.36785674  0.18542610    -0.04700
C1651       C  0.67199603  0.38668781  0.18057379    -0.22900
C1652       C  0.65432124  0.38809121  0.16922220     0.19300
C1653       C  0.64552539  0.37044840  0.16141606     0.16600
C1654       C  0.65395213  0.35172473  0.16586523    -0.17900
C1655       C  0.62761859  0.37166958  0.15054602    -0.19700
C1656       C  0.61786402  0.39006008  0.14836427    -0.12300
C1657       C  0.62599031  0.40763996  0.15670102     0.04400
C1658       C  0.64462993  0.40661554  0.16658012    -0.24400
H1659       H  0.69254230  0.36695857  0.19561776     0.09500
H1660       H  0.67894982  0.40005899  0.18669988     0.13100
H1661       H  0.64649091  0.33810785  0.16092992     0.13000
H1662       H  0.62074819  0.35826950  0.14438174     0.12800
H1663       H  0.60377208  0.39045591  0.14039184     0.13300
H1664       H  0.65109178  0.41998515  0.17320355     0.15200
C1665       C  0.70646361  0.21056629  0.17078084    -0.04800
C1666       C  0.70549333  0.22287382  0.15363987    -0.04700
C1667       C  0.70261948  0.24350081  0.15547774    -0.22900
C1668       C  0.70051816  0.25215071  0.17452394     0.19300
C1669       C  0.70206035  0.23998691  0.19192607     0.16600
C1670       C  0.70537425  0.21929623  0.18993974    -0.17900
C1671       C  0.69949576  0.24861480  0.21096401    -0.19700
C1672       C  0.69456450  0.26889685  0.21266743    -0.12300
C1673       C  0.69257625  0.28091866  0.19542071     0.04400
C1674       C  0.69603136  0.27258384  0.17640322    -0.24400
H1675       H  0.70640480  0.21640783  0.13872958     0.09500
H1676       H  0.70148709  0.25258578  0.14200079     0.13100
H1677       H  0.70668799  0.20999269  0.20323257     0.13000
H1678       H  0.70055440  0.23953710  0.22445771     0.12800
H1679       H  0.69174474  0.27512177  0.22744312     0.13300
H1680       H  0.69403609  0.28171220  0.16305004     0.15200
C1681       C  0.78291941  0.32659862  0.15971387    -0.04800
C1682       C  0.78089622  0.31145054  0.17430468    -0.04700
C1683       C  0.76200624  0.30604744  0.18174990    -0.22900
C1684       C  0.74470369  0.31527895  0.17428372     0.19300
C1685       C  0.74631238  0.32883031  0.15804408     0.16600
C1686       C  0.76540771  0.33440937  0.15082432    -0.17900
C1687       C  0.72884743  0.33736156  0.15008431    -0.19700
C1688       C  0.71007065  0.33312808  0.15866656    -0.12300
C1689       C  0.70838341  0.32075661  0.17578120     0.04400
C1690       C  0.72595290  0.31173674  0.18328953    -0.24400
H1691       H  0.79404952  0.30472712  0.18090211     0.09500
H1692       H  0.76099791  0.29520210  0.19387473     0.13100
H1693       H  0.76665832  0.34601576  0.13945303     0.13000
H1694       H  0.72972675  0.34751313  0.13736469     0.12800
H1695       H  0.69695473  0.33967508  0.15189115     0.13300
H1696       H  0.72524366  0.30248581  0.19665535     0.15200
C1697       C  0.84851009  0.17551365  0.30473303    -0.04800
C1698       C  0.86298039  0.18672933  0.31516619    -0.04700
C1699       C  0.88293076  0.17994909  0.31622020    -0.22900
C1700       C  0.88855065  0.16158957  0.30733002     0.19300
C1701       C  0.87413110  0.15068531  0.29632930     0.16600
C1702       C  0.85458838  0.15798627  0.29463775    -0.17900
C1703       C  0.87909749  0.13207330  0.28797302    -0.19700
C1704       C  0.89804556  0.12393428  0.29090768    -0.12300
C1705       C  0.91267501  0.13435777  0.30190477     0.04400
C1706       C  0.90796105  0.15349133  0.30977581    -0.24400
H1707       H  0.85868383  0.20007465  0.32334998     0.09500
H1708       H  0.89372190  0.18857751  0.32477064     0.13100
H1709       H  0.84362386  0.14921981  0.28640853     0.13000
H1710       H  0.86812533  0.12352843  0.27955110     0.12800
H1711       H  0.90126070  0.10939819  0.28443290     0.13300
H1712       H  0.91905998  0.16165322  0.31839417     0.15200
C1713       C  0.77827637  0.20294766  0.30197333    -0.04800
C1714       C  0.77793289  0.21618736  0.28547572    -0.04700
C1715       C  0.75987244  0.22480801  0.27916457    -0.22900
C1716       C  0.74180102  0.21992937  0.28894467     0.19300
C1717       C  0.74219867  0.20701421  0.30584742     0.16600
C1718       C  0.76036957  0.19896148  0.31239174    -0.17900
C1719       C  0.72431814  0.20171743  0.31557948    -0.19700
C1720       C  0.70609927  0.20878183  0.30841669    -0.12300
C1721       C  0.70539019  0.22127292  0.29144490     0.04400
C1722       C  0.72329527  0.22722760  0.28192921    -0.24400
H1723       H  0.79140686  0.21912594  0.27684979     0.09500
H1724       H  0.75992836  0.23464099  0.26617119     0.13100
H1725       H  0.76045241  0.18877560  0.32513012     0.13000
H1726       H  0.72439386  0.19188150  0.32857516     0.12800
H1727       H  0.69241448  0.20446718  0.31612884     0.13300
H1728       H  0.72275302  0.23715737  0.26901351     0.15200
C1729       C  0.82992885  0.31945213  0.26475646    -0.04800
C1730       C  0.80928088  0.32310523  0.26324509    -0.04700
C1731       C  0.80065894  0.32764601  0.24456434    -0.22900
C1732       C  0.81257741  0.32850507  0.22711412     0.19300
C1733       C  0.83303796  0.32321012  0.22840518     0.16600
C1734       C  0.84152697  0.31872263  0.24715304    -0.17900
C1735       C  0.84505691  0.32375486  0.21113235    -0.19700
C1736       C  0.83723133  0.33046325  0.19293767    -0.12300
C1737       C  0.81728657  0.33686835  0.19159144     0.04400
C1738       C  0.80480524  0.33551643  0.20866307    -0.24400
H1739       H  0.80015285  0.32406766  0.27670727     0.09500
H1740       H  0.78492248  0.33146544  0.24393639     0.13100
H1741       H  0.85750062  0.31611053  0.24828121     0.13000
H1742       H  0.86071516  0.31963153  0.21183233     0.12800
H1743       H  0.84701980  0.33136916  0.17993017     0.13300
H1744       H  0.78942029  0.34053761  0.20773879     0.15200
C1745       C  0.82756655  0.29321436  0.30475219    -0.04800
C1746       C  0.81339311  0.28773480  0.31942174    -0.04700
C1747       C  0.80879897  0.26745587  0.32290707    -0.22900
C1748       C  0.81839055  0.25227733  0.31184994     0.19300
C1749       C  0.83264459  0.25757736  0.29703754     0.16600
C1750       C  0.83707478  0.27795270  0.29356544    -0.17900
C1751       C  0.84222976  0.24239494  0.28597093    -0.19700
C1752       C  0.83730152  0.22214445  0.28913020    -0.12300
C1753       C  0.82285429  0.21671564  0.30352958     0.04400
C1754       C  0.81379644  0.23191331  0.31514840    -0.24400
H1755       H  0.80590880  0.29914697  0.32819320     0.09500
H1756       H  0.79776712  0.26363492  0.33429314     0.13100
H1757       H  0.84832803  0.28196595  0.28246447     0.13000
H1758       H  0.85325246  0.24621413  0.27457682     0.12800
H1759       H  0.84425744  0.21077179  0.27987499     0.13300
H1760       H  0.80273392  0.22782669  0.32641692     0.15200
C1761       C  0.35877820  0.18015282  0.30444178    -0.04800
C1762       C  0.37436195  0.19024103  0.29440132    -0.04700
C1763       C  0.39412330  0.18869910  0.30136484    -0.22900
C1764       C  0.39833190  0.17769197  0.31892188     0.19300
C1765       C  0.38288298  0.16637729  0.32813717     0.16600
C1766       C  0.36344609  0.16708484  0.32034859    -0.17900
C1767       C  0.38659235  0.15610000  0.34613634    -0.19700
C1768       C  0.40504065  0.15809358  0.35571243    -0.12300
C1769       C  0.42034504  0.16989887  0.34720153     0.04400
C1770       C  0.41717395  0.17902184  0.32831447    -0.24400
H1771       H  0.37108054  0.20068269  0.28238921     0.09500
H1772       H  0.40577054  0.19742886  0.29403083     0.13100
H1773       H  0.35139019  0.15948929  0.32831519     0.13000
H1774       H  0.37488765  0.14733889  0.35335008     0.12800
H1775       H  0.40723093  0.15058966  0.36998756     0.13300
H1776       H  0.42884857  0.18821492  0.32161462     0.15200
C1777       C  0.58235381  0.19489199  0.34405576    -0.04800
C1778       C  0.60118482  0.19012808  0.35207294    -0.04700
C1779       C  0.61871309  0.19349207  0.34096918    -0.22900
C1780       C  0.61784936  0.20200232  0.32169021     0.19300
C1781       C  0.59905618  0.20673482  0.31327723     0.16600
C1782       C  0.58141964  0.20289700  0.32439317    -0.17900
C1783       C  0.59833568  0.21599384  0.29426053    -0.19700
C1784       C  0.61606625  0.22143108  0.28421096    -0.12300
C1785       C  0.63474372  0.21701642  0.29265023     0.04400
C1786       C  0.63551821  0.20679352  0.31114041    -0.24400
H1787       H  0.60241683  0.18374297  0.36698834     0.09500
H1788       H  0.63300931  0.18982928  0.34766389     0.13100
H1789       H  0.56707354  0.20684636  0.31799597     0.13000
H1790       H  0.58408316  0.21984929  0.28758845     0.12800
H1791       H  0.61522989  0.22974968  0.27023300     0.13300
H1792       H  0.64994350  0.20393988  0.31799682     0.15200
C1793       C  0.58672473  0.17043420  0.61267852    -0.04800
C1794       C  0.60188004  0.15965366  0.60282344    -0.04700
C1795       C  0.62070842  0.15741106  0.61150088    -0.22900
C1796       C  0.62501558  0.16634649  0.63003856     0.19300
C1797       C  0.60988807  0.17676277  0.64056479     0.16600
C1798       C  0.59061404  0.17840827  0.63197353    -0.17900
C1799       C  0.61477500  0.18632338  0.65881131    -0.19700
C1800       C  0.63476265  0.18707941  0.66546691    -0.12300
C1801       C  0.64995399  0.17771277  0.65430747     0.04400
C1802       C  0.64466404  0.16635314  0.63732930    -0.24400
H1803       H  0.59923409  0.15301986  0.58821926     0.09500
H1804       H  0.63218064  0.14935942  0.60328252     0.13100
H1805       H  0.57907002  0.18679091  0.63973387     0.13000
H1806       H  0.60341644  0.19435898  0.66718657     0.12800
H1807       H  0.63853856  0.19616956  0.67840448     0.13300
H1808       H  0.65636675  0.15923509  0.62854414     0.15200
C1809       C  0.68050643  0.17569423  0.69208596    -0.04800
C1810       C  0.66646560  0.16071923  0.69710465    -0.04700
C1811       C  0.66260324  0.15587081  0.71731362    -0.22900
C1812       C  0.67291973  0.16570820  0.73287520     0.19300
C1813       C  0.68773808  0.18005420  0.72797662     0.16600
C1814       C  0.69113624  0.18517398  0.70777236    -0.17900
C1815       C  0.69835869  0.18967099  0.74340660    -0.19700
C1816       C  0.69322312  0.18631688  0.76354508    -0.12300
C1817       C  0.67726514  0.17345655  0.76866146     0.04400
C1818       C  0.66784546  0.16240405  0.75319107    -0.24400
H1819       H  0.65845781  0.15277249  0.68545028     0.09500
H1820       H  0.65132841  0.14463260  0.72078108     0.13100
H1821       H  0.70169108  0.19707721  0.70431509     0.13000
H1822       H  0.71002504  0.20048841  0.73987792     0.12800
H1823       H  0.70077191  0.19486530  0.77510640     0.13300
H1824       H  0.65534312  0.15261486  0.75680149     0.15200
C1825       C  0.67631865  0.35892610  0.81330991    -0.04800
C1826       C  0.68178489  0.37452343  0.82636699    -0.04700
C1827       C  0.67353575  0.39373329  0.82417278    -0.22900
C1828       C  0.65900952  0.39741073  0.80939265     0.19300
C1829       C  0.65399431  0.38199507  0.79570494     0.16600
C1830       C  0.66315802  0.36308808  0.79737358    -0.17900
C1831       C  0.63870100  0.38519137  0.78164954    -0.19700
C1832       C  0.62782067  0.40309903  0.78176126    -0.12300
C1833       C  0.63243895  0.41842345  0.79546077     0.04400
C1834       C  0.64849983  0.41571653  0.80887049    -0.24400
H1835       H  0.69127822  0.37144306  0.83916445     0.09500
H1836       H  0.67745608  0.40529183  0.83492362     0.13100
H1837       H  0.65826063  0.35089789  0.78775158     0.13000
H1838       H  0.63461282  0.37351952  0.77108459     0.12800
H1839       H  0.61569015  0.40495980  0.77116798     0.13300
H1840       H  0.65205504  0.42739350  0.81963256     0.15200
C1841       C  0.68116526  0.28604019  0.80703768    -0.04800
C1842       C  0.67521251  0.28390001  0.78694078    -0.04700
C1843       C  0.67168927  0.26481247  0.77888457    -0.22900
C1844       C  0.67420825  0.24763176  0.79083659     0.19300
C1845       C  0.68186480  0.24971116  0.81056438     0.16600
C1846       C  0.68512327  0.26891641  0.81858199    -0.17900
C1847       C  0.68474706  0.23261567  0.82246499    -0.19700
C1848       C  0.67863905  0.21382155  0.81553556    -0.12300
C1849       C  0.66945004  0.21184069  0.79669957     0.04400
C1850       C  0.66790723  0.22862479  0.78403080    -0.24400
H1851       H  0.67182633  0.29704249  0.77797926     0.09500
H1852       H  0.66600842  0.26355388  0.76369449     0.13100
H1853       H  0.68948720  0.27060553  0.83418515     0.13000
H1854       H  0.69078423  0.23390439  0.83751508     0.12800
H1855       H  0.67983301  0.20095759  0.82544900     0.13300
H1856       H  0.66074802  0.22707928  0.76950537     0.15200
C1857       C  0.70943728  0.32359652  0.80643920    -0.04800
C1858       C  0.71694408  0.33798643  0.79289958    -0.04700
C1859       C  0.73751269  0.33879376  0.78835392    -0.22900
C1860       C  0.75099076  0.32539333  0.79748360     0.19300
C1861       C  0.74361802  0.31093504  0.81117816     0.16600
C1862       C  0.72299981  0.31010222  0.81546713    -0.17900
C1863       C  0.75702619  0.29768988  0.82056216    -0.19700
C1864       C  0.77762016  0.29879323  0.81650396    -0.12300
C1865       C  0.78517335  0.31297306  0.80281214     0.04400
C1866       C  0.77169887  0.32623111  0.79330524    -0.24400
H1867       H  0.70690179  0.34848759  0.78574884     0.09500
H1868       H  0.74290828  0.35000169  0.77779884     0.13100
H1869       H  0.71752926  0.29921643  0.82631000     0.13000
H1870       H  0.75157117  0.28645478  0.83106208     0.12800
H1871       H  0.78763331  0.28828272  0.82369528     0.13300
H1872       H  0.77742839  0.33724719  0.78271692     0.15200
C1873       C  0.79313019  0.29986052  0.68435880    -0.04800
C1874       C  0.80473100  0.31729588  0.68661891    -0.04700
C1875       C  0.80956221  0.32442263  0.70568911    -0.22900
C1876       C  0.80290059  0.31418037  0.72288625     0.19300
C1877       C  0.79101457  0.29667439  0.72088416     0.16600
C1878       C  0.78602285  0.28966705  0.70151557    -0.17900
C1879       C  0.78467648  0.28643256  0.73830502    -0.19700
C1880       C  0.79074826  0.29301624  0.75739959    -0.12300
C1881       C  0.80305117  0.31006828  0.75937134     0.04400
C1882       C  0.80856423  0.32084254  0.74202213    -0.24400
H1883       H  0.80990191  0.32552193  0.67350364     0.09500
H1884       H  0.81863094  0.33788631  0.70698457     0.13100
H1885       H  0.77679537  0.27636087  0.69975573     0.13000
H1886       H  0.77562815  0.27294792  0.73712748     0.12800
H1887       H  0.78676435  0.28415423  0.77049138     0.13300
H1888       H  0.81820020  0.33391569  0.74339664     0.15200
C1889       C  0.79603433  0.18582560  0.68973955    -0.04800
C1890       C  0.79024180  0.20581333  0.68655445    -0.04700
C1891       C  0.77045755  0.21036721  0.68154893    -0.22900
C1892       C  0.75605162  0.19503452  0.68021200     0.19300
C1893       C  0.76151982  0.17501121  0.68450216     0.16600
C1894       C  0.78145250  0.17055709  0.68910742    -0.17900
C1895       C  0.74704637  0.15970763  0.68371477    -0.19700
C1896       C  0.72742752  0.16411008  0.67810927    -0.12300
C1897       C  0.72210617  0.18379525  0.67301393     0.04400
C1898       C  0.73638299  0.19926873  0.67429093    -0.24400
H1899       H  0.80096789  0.21792964  0.68789926     0.09500
H1900       H  0.76644794  0.22585054  0.67866892     0.13100
H1901       H  0.78573021  0.15509758  0.69177779     0.13000
H1902       H  0.75099547  0.14429622  0.68703285     0.12800
H1903       H  0.71659633  0.15202150  0.67690562     0.13300
H1904       H  0.73223069  0.21447390  0.67028483     0.15200
C1905       C  0.83398318  0.20223376  0.66880053    -0.04800
C1906       C  0.82247794  0.20109333  0.65121242    -0.04700
C1907       C  0.81644989  0.21859018  0.64126441    -0.22900
C1908       C  0.82153010  0.23753301  0.64901560     0.19300
C1909       C  0.83464835  0.23878667  0.66560184     0.16600
C1910       C  0.84117977  0.22106604  0.67511073    -0.17900
C1911       C  0.83934503  0.25769817  0.67362732    -0.19700
C1912       C  0.82960942  0.27493378  0.66665648    -0.12300
C1913       C  0.81512411  0.27365043  0.65143539     0.04400
C1914       C  0.81215188  0.25501767  0.64180783    -0.24400
H1915       H  0.81666884  0.18672391  0.64629617     0.09500
H1916       H  0.80649342  0.21730889  0.62850296     0.13100
H1917       H  0.84978390  0.22199432  0.68886519     0.13000
H1918       H  0.84952819  0.25900573  0.68620468     0.12800
H1919       H  0.83249140  0.28909311  0.67403741     0.13300
H1920       H  0.80091432  0.25375980  0.63015950     0.15200
C1921       C  0.83417910  0.67428653  0.35423154    -0.04800
C1922       C  0.81522538  0.66552562  0.35726900    -0.04700
C1923       C  0.81097506  0.65468196  0.37487084    -0.22900
C1924       C  0.82563462  0.65239892  0.38976710     0.19300
C1925       C  0.84427284  0.66232646  0.38744082     0.16600
C1926       C  0.84843027  0.67312193  0.36968501    -0.17900
C1927       C  0.85882512  0.66043202  0.40246342    -0.19700
C1928       C  0.85515728  0.64847495  0.41940049    -0.12300
C1929       C  0.83711114  0.63775614  0.42140953     0.04400
C1930       C  0.82228508  0.63988299  0.40659947    -0.24400
H1931       H  0.80429231  0.66562086  0.34527787     0.09500
H1932       H  0.79656179  0.64728847  0.37639129     0.13100
H1933       H  0.86327572  0.67933456  0.36720462     0.13000
H1934       H  0.87315488  0.66800075  0.40099752     0.12800
H1935       H  0.86668519  0.64713170  0.43072946     0.13300
H1936       H  0.80820450  0.63186795  0.40822963     0.15200
C1937       C  0.84272392  0.66682537  0.64723200    -0.04800
C1938       C  0.85136923  0.67724384  0.63102019    -0.04700
C1939       C  0.84883101  0.67026059  0.61126193    -0.22900
C1940       C  0.83824670  0.65232520  0.60755602     0.19300
C1941       C  0.82879345  0.64231235  0.62376407     0.16600
C1942       C  0.83063832  0.64992965  0.64333122    -0.17900
C1943       C  0.81885320  0.62405401  0.62041026    -0.19700
C1944       C  0.81900746  0.61526702  0.60135205    -0.12300
C1945       C  0.82878923  0.62468380  0.58510765     0.04400
C1946       C  0.83791726  0.64359824  0.58823336    -0.24400
H1947       H  0.86116044  0.68993919  0.63370678     0.09500
H1948       H  0.85621357  0.67816577  0.59904707     0.13100
H1949       H  0.82430584  0.64156204  0.65586020     0.13000
H1950       H  0.81152408  0.61620054  0.63269932     0.12800
H1951       H  0.81154179  0.60095387  0.59940783     0.13300
H1952       H  0.84559972  0.65106042  0.57593049     0.15200
C1953       C  0.83443460  0.32859624  0.33721607    -0.04800
C1954       C  0.84158399  0.31769934  0.35373562    -0.04700
C1955       C  0.83812315  0.32459028  0.37340460    -0.22900
C1956       C  0.82797847  0.34278582  0.37673332     0.19300
C1957       C  0.82010507  0.35333676  0.36013181     0.16600
C1958       C  0.82303614  0.34596249  0.34060239    -0.17900
C1959       C  0.81050148  0.37175670  0.36316877    -0.19700
C1960       C  0.80945566  0.38017099  0.38236613    -0.12300
C1961       C  0.81770187  0.37022933  0.39902225     0.04400
C1962       C  0.82646505  0.35116878  0.39614959    -0.24400
H1963       H  0.85070855  0.30450530  0.35137950     0.09500
H1964       H  0.84428655  0.31626436  0.38592725     0.13100
H1965       H  0.81782253  0.35461583  0.32783164     0.13000
H1966       H  0.80434835  0.37999315  0.35057509     0.12800
H1967       H  0.80231828  0.39462212  0.38411363     0.13300
H1968       H  0.83297430  0.34330625  0.40878816     0.15200
C1969       C  0.82115673  0.35596409  0.56312111    -0.04800
C1970       C  0.82689283  0.36283576  0.58223307    -0.04700
C1971       C  0.82459393  0.35061402  0.59923743    -0.22900
C1972       C  0.81617429  0.33135664  0.59756252     0.19300
C1973       C  0.81060266  0.32408940  0.57842848     0.16600
C1974       C  0.81338798  0.33630815  0.56132008    -0.17900
C1975       C  0.80138897  0.30514098  0.57689489    -0.19700
C1976       C  0.79655603  0.29413785  0.59425038    -0.12300
C1977       C  0.80155428  0.30151182  0.61333675     0.04400
C1978       C  0.81205949  0.31979550  0.61482951    -0.24400
H1979       H  0.83312049  0.37774311  0.58409585     0.09500
H1980       H  0.82889395  0.35645453  0.61379568     0.13100
H1981       H  0.80867241  0.33078719  0.54677778     0.13000
H1982       H  0.79690930  0.29935096  0.56237244     0.12800
H1983       H  0.78797076  0.28037760  0.59286614     0.13300
H1984       H  0.81532162  0.32588200  0.62957895     0.15200
C1985       C  0.67711237  0.91050980  0.11928594    -0.04800
C1986       C  0.68883789  0.89588638  0.10975984    -0.04700
C1987       C  0.69172009  0.87716173  0.11863224    -0.22900
C1988       C  0.68251400  0.87246728  0.13701337     0.19300
C1989       C  0.67112030  0.88710375  0.14720138     0.16600
C1990       C  0.66880398  0.90627761  0.13842260    -0.17900
C1991       C  0.66141874  0.88182156  0.16534125    -0.19700
C1992       C  0.66168798  0.86184741  0.17231435    -0.12300
C1993       C  0.67210992  0.84712241  0.16149894     0.04400
C1994       C  0.68338970  0.85287910  0.14454606    -0.24400
H1995       H  0.69573362  0.89888287  0.09529679     0.09500
H1996       H  0.70054258  0.86605810  0.11070682     0.13100
H1997       H  0.65972248  0.91745887  0.14592617     0.13000
H1998       H  0.65265066  0.89282487  0.17345144     0.12800
H1999       H  0.65273397  0.85767788  0.18528613     0.13300
H2000       H  0.69146811  0.84154222  0.13612418     0.15200
C2001       C  0.67673997  0.07170547  0.13102553    -0.04800
C2002       C  0.68996322  0.06890024  0.14718380    -0.04700
C2003       C  0.69506362  0.08484721  0.15979482    -0.22900
C2004       C  0.68678534  0.10387470  0.15670991     0.19300
C2005       C  0.67248294  0.10661999  0.14131205     0.16600
C2006       C  0.66774976  0.09056778  0.12835462    -0.17900
C2007       C  0.66393678  0.12563472  0.13859612    -0.19700
C2008       C  0.67089866  0.14209152  0.14967832    -0.12300
C2009       C  0.68656902  0.13980509  0.16352025     0.04400
C2010       C  0.69368631  0.12048020  0.16774448    -0.24400
H2011       H  0.69696169  0.05447656  0.14964303     0.09500
H2012       H  0.70591324  0.08241710  0.17162266     0.13100
H2013       H  0.65726123  0.09276129  0.11614915     0.13000
H2014       H  0.65279590  0.12803716  0.12704288     0.12800
H2015       H  0.66558060  0.15695715  0.14586550     0.13300
H2016       H  0.70605536  0.11871483  0.17811446     0.15200
C2017       C  0.69357768  0.92543823  0.85282620    -0.04800
C2018       C  0.71155315  0.92679267  0.84187647    -0.04700
C2019       C  0.71795525  0.91091622  0.82982069    -0.22900
C2020       C  0.70626501  0.89349873  0.82809363     0.19300
C2021       C  0.68781058  0.89211186  0.83852861     0.16600
C2022       C  0.68170848  0.90800642  0.85114366    -0.17900
C2023       C  0.67607024  0.87468264  0.83639930    -0.19700
C2024       C  0.68311310  0.85839635  0.82506100    -0.12300
C2025       C  0.70201960  0.85924708  0.81575455     0.04400
C2026       C  0.71319150  0.87712152  0.81680462    -0.24400
H2027       H  0.72084561  0.94011891  0.84290458     0.09500
H2028       H  0.73211983  0.91223242  0.82191275     0.13100
H2029       H  0.66768192  0.90698860  0.85934769     0.13000
H2030       H  0.66183948  0.87332040  0.84417123     0.12800
H2031       H  0.67453326  0.84455818  0.82493057     0.13300
H2032       H  0.72796579  0.87771608  0.80999131     0.15200
C2033       C  0.67553250  0.08804756  0.85862693    -0.04800
C2034       C  0.67111366  0.10581807  0.86910978    -0.04700
C2035       C  0.66800774  0.12382176  0.85885860    -0.22900
C2036       C  0.66914322  0.12451855  0.83784127     0.19300
C2037       C  0.67421082  0.10709208  0.82697002     0.16600
C2038       C  0.67751860  0.08896799  0.83743887    -0.17900
C2039       C  0.67522493  0.10804846  0.80581444    -0.19700
C2040       C  0.67019949  0.12581338  0.79557702    -0.12300
C2041       C  0.66424468  0.14284976  0.80637960     0.04400
C2042       C  0.66451262  0.14223550  0.82753810    -0.24400
H2043       H  0.66961758  0.10587815  0.88529719     0.09500
H2044       H  0.66420786  0.13713121  0.86738354     0.13100
H2045       H  0.68111498  0.07559108  0.82898617     0.13000
H2046       H  0.67925580  0.09488950  0.79717920     0.12800
H2047       H  0.67022449  0.12597266  0.77930521     0.13300
H2048       H  0.66025416  0.15544999  0.83602220     0.15200
C2049       C  0.12465144  0.31288293  0.07875027    -0.04800
C2050       C  0.11691928  0.32495383  0.09421873    -0.04700
C2051       C  0.12613544  0.32566700  0.11304872    -0.22900
C2052       C  0.14313831  0.31404955  0.11698323     0.19300
C2053       C  0.15147174  0.30217013  0.10152227     0.16600
C2054       C  0.14231168  0.30184821  0.08239472    -0.17900
C2055       C  0.16827288  0.29020774  0.10579747    -0.19700
C2056       C  0.17598897  0.28922440  0.12541801    -0.12300
C2057       C  0.16726944  0.30045609  0.14095503     0.04400
C2058       C  0.15122059  0.31327983  0.13644827    -0.24400
H2059       H  0.10362927  0.33386594  0.09178242     0.09500
H2060       H  0.11962248  0.33492551  0.12472608     0.13100
H2061       H  0.14844524  0.29240727  0.07066177     0.13000
H2062       H  0.17485497  0.28091208  0.09419638     0.12800
H2063       H  0.18798509  0.27884942  0.12870773     0.13300
H2064       H  0.14413829  0.32162444  0.14850421     0.15200
C2065       C  0.85677783  0.31814151  0.06241771    -0.04800
C2066       C  0.86458077  0.30935271  0.07994422    -0.04700
C2067       C  0.85447840  0.31082396  0.09832527    -0.22900
C2068       C  0.83647856  0.32146806  0.09973594     0.19300
C2069       C  0.82807418  0.32995677  0.08220845     0.16600
C2070       C  0.83809450  0.32792211  0.06356049    -0.17900
C2071       C  0.81046128  0.34134115  0.08392239    -0.19700
C2072       C  0.80221137  0.34551075  0.10291542    -0.12300
C2073       C  0.81090675  0.33767502  0.12041744     0.04400
C2074       C  0.82755455  0.32494966  0.11860436    -0.24400
H2075       H  0.87869146  0.30143286  0.07952123     0.09500
H2076       H  0.86113706  0.30422017  0.11160195     0.13100
H2077       H  0.83190578  0.33486561  0.05022881     0.13000
H2078       H  0.80379192  0.34805546  0.07071275     0.12800
H2079       H  0.78974343  0.35579426  0.10404677     0.13300
H2080       H  0.83475255  0.31943709  0.13211480     0.15200
C2081       C  0.86518299  0.30678551  0.89660635    -0.04800
C2082       C  0.87188784  0.29175104  0.88346269    -0.04700
C2083       C  0.86245802  0.28847244  0.86501575    -0.22900
C2084       C  0.84641297  0.30054598  0.85894574     0.19300
C2085       C  0.83930033  0.31572707  0.87188042     0.16600
C2086       C  0.84849932  0.31851422  0.89087566    -0.17900
C2087       C  0.82374393  0.32829126  0.86511054    -0.19700
C2088       C  0.81633460  0.32663849  0.84532842    -0.12300
C2089       C  0.82395686  0.31203310  0.83218781     0.04400
C2090       C  0.83831379  0.29846454  0.83957944    -0.24400
H2091       H  0.88443588  0.28236466  0.88753927     0.09500
H2092       H  0.86812011  0.27680527  0.85520984     0.13100
H2093       H  0.84322473  0.33025462  0.90080917     0.13000
H2094       H  0.81810908  0.34012914  0.87471219     0.12800
H2095       H  0.80574084  0.33762220  0.83988393     0.13300
H2096       H  0.84459233  0.28737385  0.82945398     0.15200
C2097       C  0.18624507  0.69539858  0.13495021    -0.04800
C2098       C  0.19588219  0.69864854  0.11645446    -0.04700
C2099       C  0.18702981  0.69207473  0.09852214    -0.22900
C2100       C  0.16805300  0.68283342  0.09883361     0.19300
C2101       C  0.15872520  0.67877512  0.11751534     0.16600
C2102       C  0.16811733  0.68463391  0.13542983    -0.17900
C2103       C  0.13950419  0.67026220  0.11795764    -0.19700
C2104       C  0.12920480  0.66657743  0.10008643    -0.12300
C2105       C  0.13798696  0.67104156  0.08134678     0.04400
C2106       C  0.15773457  0.67868428  0.08085869    -0.24400
H2107       H  0.20956786  0.70741248  0.11578662     0.09500
H2108       H  0.19441877  0.69536319  0.08435421     0.13100
H2109       H  0.16035026  0.68266982  0.14966283     0.13000
H2110       H  0.13214365  0.66706726  0.13216594     0.12800
H2111       H  0.11422311  0.66039258  0.10101214     0.13300
H2112       H  0.16474209  0.68234436  0.06659764     0.15200
C2113       C  0.13237402  0.68009208  0.91692737    -0.04800
C2114       C  0.12446462  0.69615569  0.90590878    -0.04700
C2115       C  0.13307327  0.70200045  0.88769497    -0.22900
C2116       C  0.14931362  0.69137487  0.87971327     0.19300
C2117       C  0.15752909  0.67512471  0.89048921     0.16600
C2118       C  0.14933596  0.66991024  0.90944288    -0.17900
C2119       C  0.17300960  0.66387439  0.88153932    -0.19700
C2120       C  0.17898268  0.66766434  0.86152643    -0.12300
C2121       C  0.17017369  0.68333651  0.85053863     0.04400
C2122       C  0.15642729  0.69594192  0.86043078    -0.24400
H2123       H  0.11155643  0.70426660  0.91145409     0.09500
H2124       H  0.12650383  0.71436821  0.87945470     0.13100
H2125       H  0.15540589  0.65737274  0.91781405     0.13000
H2126       H  0.17953698  0.65132436  0.88951417     0.12800
H2127       H  0.18940605  0.65755163  0.85431848     0.13300
H2128       H  0.14975210  0.70835296  0.85232567     0.15200
C2129       C  0.86733986  0.66990453  0.08265494    -0.04800
C2130       C  0.87275951  0.68208407  0.09894080    -0.04700
C2131       C  0.86150798  0.68167368  0.11668956    -0.22900
C2132       C  0.84515927  0.66849369  0.11861391     0.19300
C2133       C  0.83943010  0.65636712  0.10218284     0.16600
C2134       C  0.85025203  0.65756930  0.08412615    -0.17900
C2135       C  0.82391786  0.64222784  0.10456549    -0.19700
C2136       C  0.81535514  0.63895381  0.12353235    -0.12300
C2137       C  0.82149146  0.65050926  0.13997116     0.04400
C2138       C  0.83557589  0.66598876  0.13719390    -0.24400
H2139       H  0.88576164  0.69181821  0.09795401     0.09500
H2140       H  0.86612661  0.69098204  0.12920265     0.13100
H2141       H  0.84614346  0.64795095  0.07166208     0.13000
H2142       H  0.81944450  0.63273940  0.09213862     0.12800
H2143       H  0.80485743  0.62668146  0.12563442     0.13300
H2144       H  0.84070181  0.67449499  0.15010467     0.15200
C2145       C  0.86898693  0.66507447  0.92020009    -0.04800
C2146       C  0.87785598  0.67364890  0.90302015    -0.04700
C2147       C  0.86756872  0.67431481  0.88480936    -0.22900
C2148       C  0.84831621  0.66602994  0.88325511     0.19300
C2149       C  0.83894805  0.65766228  0.90042105     0.16600
C2150       C  0.84920951  0.65758098  0.91892433    -0.17900
C2151       C  0.82004261  0.64845873  0.89841039    -0.19700
C2152       C  0.81140759  0.64605780  0.87931863    -0.12300
C2153       C  0.82110199  0.65365745  0.86215642     0.04400
C2154       C  0.83899561  0.66460909  0.86445478    -0.24400
H2155       H  0.89286099  0.67981668  0.90358852     0.09500
H2156       H  0.87497437  0.68070035  0.87174130     0.13100
H2157       H  0.84219512  0.65079195  0.93199925     0.13000
H2158       H  0.81261619  0.64189595  0.91137379     0.12800
H2159       H  0.79791973  0.63711549  0.87780368     0.13300
H2160       H  0.84682951  0.66998621  0.85115737     0.15200
C2161       C  0.18171299  0.28413659  0.66402317    -0.04800
C2162       C  0.19930846  0.27861084  0.67407927    -0.04700
C2163       C  0.20396700  0.25834391  0.67704164    -0.22900
C2164       C  0.19117623  0.24323020  0.66980079     0.19300
C2165       C  0.17481049  0.24858190  0.65758774     0.16600
C2166       C  0.17021734  0.26905502  0.65465737    -0.17900
C2167       C  0.16243213  0.23336999  0.64991888    -0.19700
C2168       C  0.16512433  0.21331066  0.65575780    -0.12300
C2169       C  0.17987529  0.20797447  0.66989894     0.04400
C2170       C  0.19352858  0.22311941  0.67595148    -0.24400
H2171       H  0.20829647  0.28998314  0.68142702     0.09500
H2172       H  0.21679293  0.25453953  0.68619119     0.13100
H2173       H  0.15652049  0.27316155  0.64704569     0.13000
H2174       H  0.15011017  0.23707295  0.64005421     0.12800
H2175       H  0.15501135  0.20220433  0.64973720     0.13300
H2176       H  0.20503155  0.21978434  0.68682278     0.15200
C2177       C  0.30789642  0.12408584  0.80434877    -0.04800
C2178       C  0.32376815  0.12843560  0.81750335    -0.04700
C2179       C  0.33101719  0.11376760  0.83078991    -0.22900
C2180       C  0.32258215  0.09440062  0.83112243     0.19300
C2181       C  0.30743099  0.08960199  0.81708471     0.16600
C2182       C  0.30016368  0.10443919  0.80390437    -0.17900
C2183       C  0.29915530  0.07025603  0.81702249    -0.19700
C2184       C  0.30559606  0.05584491  0.83081230    -0.12300
C2185       C  0.32021425  0.06044437  0.84529256     0.04400
C2186       C  0.32868648  0.07986849  0.84539520    -0.24400
H2187       H  0.32950156  0.14363170  0.81858433     0.09500
H2188       H  0.34268094  0.11780912  0.84133289     0.13100
H2189       H  0.28758282  0.10109098  0.79419099     0.13000
H2190       H  0.28757544  0.06627483  0.80635852     0.12800
H2191       H  0.29883862  0.04104556  0.83034528     0.13300
H2192       H  0.34016445  0.08352493  0.85628643     0.15200
C2193       C  0.35806408  0.15346891  0.65620052    -0.04800
C2194       C  0.36432729  0.17341836  0.65923917    -0.04700
C2195       C  0.38275550  0.18029427  0.65141806    -0.22900
C2196       C  0.39503905  0.16748339  0.63997143     0.19300
C2197       C  0.38935380  0.14715236  0.63782156     0.16600
C2198       C  0.37139124  0.14019165  0.64652363    -0.17900
C2199       C  0.40100611  0.13435407  0.62584743    -0.19700
C2200       C  0.41770215  0.14174939  0.61542471    -0.12300
C2201       C  0.42346193  0.16193199  0.61715814     0.04400
C2202       C  0.41235659  0.17470674  0.62988486    -0.24400
H2203       H  0.35436066  0.18409129  0.66629702     0.09500
H2204       H  0.38681190  0.19594388  0.65329255     0.13100
H2205       H  0.36689929  0.12471775  0.64414160     0.13000
H2206       H  0.39681591  0.11873224  0.62399542     0.12800
H2207       H  0.42616183  0.13167650  0.60588914     0.13300
H2208       H  0.41673279  0.19033039  0.63128000     0.15200
C2209       C  0.28412086  0.16191143  0.66375781    -0.04800
C2210       C  0.27250561  0.16779397  0.64708921    -0.04700
C2211       C  0.25287763  0.17458998  0.64946313    -0.22900
C2212       C  0.24443896  0.17622562  0.66866342     0.19300
C2213       C  0.25625713  0.17152108  0.68564346     0.16600
C2214       C  0.27573995  0.16381646  0.68309160    -0.17900
C2215       C  0.24809177  0.17391074  0.70489243    -0.19700
C2216       C  0.22805832  0.17941016  0.70725220    -0.12300
C2217       C  0.21555228  0.18218704  0.69045551     0.04400
C2218       C  0.22412303  0.18144770  0.67113139    -0.24400
H2219       H  0.27849941  0.16673058  0.63197722     0.09500
H2220       H  0.24421117  0.17828667  0.63623159     0.13100
H2221       H  0.28384564  0.15850700  0.69608415     0.13000
H2222       H  0.25700196  0.17088357  0.71813465     0.12800
H2223       H  0.22199671  0.18033314  0.72234600     0.13300
H2224       H  0.21473257  0.18351471  0.65803933     0.15200
C2225       C  0.32387709  0.16241785  0.68999315    -0.04800
C2226       C  0.31690842  0.18113687  0.69657810    -0.04700
C2227       C  0.31283649  0.18444191  0.71701264    -0.22900
C2228       C  0.31601262  0.16917881  0.73128778     0.19300
C2229       C  0.32488450  0.15104032  0.72511663     0.16600
C2230       C  0.32881144  0.14776430  0.70449091    -0.17900
C2231       C  0.32849774  0.13607113  0.73952670    -0.19700
C2232       C  0.32249238  0.13861380  0.75962926    -0.12300
C2233       C  0.31229798  0.15604725  0.76592723     0.04400
C2234       C  0.30946071  0.17138687  0.75134485    -0.24400
H2235       H  0.31300644  0.19254963  0.68568308     0.09500
H2236       H  0.30627419  0.19859612  0.72150413     0.13100
H2237       H  0.33417089  0.13325673  0.69951613     0.13000
H2238       H  0.33550096  0.12209507  0.73514146     0.12800
H2239       H  0.32529237  0.12646375  0.76995899     0.13300
H2240       H  0.30112228  0.18472542  0.75504203     0.15200
C2241       C  0.13156768  0.30621119  0.91336081    -0.04800
C2242       C  0.12350199  0.31568326  0.89633178    -0.04700
C2243       C  0.13385047  0.31582857  0.87803623    -0.22900
C2244       C  0.15233933  0.30611954  0.87622187     0.19300
C2245       C  0.16097124  0.29697755  0.89329471     0.16600
C2246       C  0.15069042  0.29739872  0.91187901    -0.17900
C2247       C  0.17909493  0.28651345  0.89112495    -0.19700
C2248       C  0.18760597  0.28372323  0.87200109    -0.12300
C2249       C  0.17861678  0.29206486  0.85489881     0.04400
C2250       C  0.16152289  0.30408250  0.85729192    -0.24400
H2251       H  0.10903637  0.32291291  0.89708135     0.09500
H2252       H  0.12702254  0.32291272  0.86510083     0.13100
H2253       H  0.15707053  0.28995769  0.92484405     0.13000
H2254       H  0.18594630  0.27934522  0.90399515     0.12800
H2255       H  0.20043911  0.27396746  0.87038433     0.13300
H2256       H  0.15416328  0.30999959  0.84404526     0.15200
C2257       C  0.17159324  0.30073535  0.70651468    -0.04800
C2258       C  0.16916620  0.28012727  0.71036853    -0.04700
C2259       C  0.17292383  0.27232767  0.72954830    -0.22900
C2260       C  0.17836974  0.28514370  0.74538962     0.19300
C2261       C  0.18062834  0.30589892  0.74171801     0.16600
C2262       C  0.17754650  0.31346215  0.72230359    -0.17900
C2263       C  0.18522070  0.31887415  0.75766456    -0.19700
C2264       C  0.18680703  0.31146244  0.77726442    -0.12300
C2265       C  0.18445513  0.29086397  0.78118267     0.04400
C2266       C  0.18071252  0.27772055  0.76500410    -0.24400
H2267       H  0.16390236  0.27010460  0.69873309     0.09500
H2268       H  0.17088980  0.25638585  0.73215450     0.13100
H2269       H  0.17935571  0.32941700  0.71955920     0.13000
H2270       H  0.18684037  0.33486664  0.75509537     0.12800
H2271       H  0.18921945  0.32194906  0.78944319     0.13300
H2272       H  0.17888784  0.26178066  0.76778095     0.15200
C2273       C  0.32425873  0.34007519  0.82198062    -0.04800
C2274       C  0.31711613  0.34934122  0.80439386    -0.04700
C2275       C  0.32461641  0.36816679  0.79825753    -0.22900
C2276       C  0.33996881  0.37771326  0.80914345     0.19300
C2277       C  0.34674429  0.36880613  0.82713166     0.16600
C2278       C  0.33823187  0.35068897  0.83382522    -0.17900
C2279       C  0.36276678  0.37750036  0.83760594    -0.19700
C2280       C  0.37244274  0.39455138  0.83004448    -0.12300
C2281       C  0.36586111  0.40371943  0.81226943     0.04400
C2282       C  0.34924943  0.39550394  0.80206812    -0.24400
H2283       H  0.30669445  0.34160803  0.79468462     0.09500
H2284       H  0.31922565  0.37469491  0.78437020     0.13100
H2285       H  0.34368276  0.34412230  0.84767005     0.13000
H2286       H  0.36822780  0.37074993  0.85136523     0.12800
H2287       H  0.38500407  0.40075596  0.83824299     0.13300
H2288       H  0.34412217  0.40248431  0.78828987     0.15200
C2289       C  0.29781229  0.19453474  0.79214919    -0.04800
C2290       C  0.31811122  0.19973675  0.78984475    -0.04700
C2291       C  0.32456571  0.21948708  0.79281022    -0.22900
C2292       C  0.31101498  0.23424810  0.79909577     0.19300
C2293       C  0.29054469  0.22940160  0.80121792     0.16600
C2294       C  0.28398183  0.20977414  0.79705969    -0.17900
C2295       C  0.27724727  0.24391647  0.80869262    -0.19700
C2296       C  0.28438636  0.26270975  0.81494549    -0.12300
C2297       C  0.30475096  0.26770098  0.81281176     0.04400
C2298       C  0.31782865  0.25344860  0.80437096    -0.24400
H2299       H  0.32918777  0.18839127  0.78654054     0.09500
H2300       H  0.34036155  0.22296155  0.79126333     0.13100
H2301       H  0.26823889  0.20616547  0.79876139     0.13000
H2302       H  0.26151411  0.24037319  0.81068716     0.12800
H2303       H  0.27409446  0.27295604  0.82211478     0.13300
H2304       H  0.33359963  0.25703181  0.80270805     0.15200
C2305       C  0.28670072  0.31079433  0.81217189    -0.04800
C2306       C  0.27973911  0.30445593  0.79333904    -0.04700
C2307       C  0.25924304  0.30177126  0.79001399    -0.22900
C2308       C  0.24538777  0.30553532  0.80547487     0.19300
C2309       C  0.25199996  0.31429663  0.82356648     0.16600
C2310       C  0.27271275  0.31704090  0.82678196    -0.17900
C2311       C  0.23790806  0.31855477  0.83867255    -0.19700
C2312       C  0.21777932  0.31278702  0.83648495    -0.12300
C2313       C  0.21131555  0.30208097  0.81939217     0.04400
C2314       C  0.22539051  0.29916825  0.80368860    -0.24400
H2315       H  0.29030184  0.29962462  0.78196150     0.09500
H2316       H  0.25436979  0.29540588  0.77586489     0.13100
H2317       H  0.27802812  0.32192315  0.84135730     0.13000
H2318       H  0.24257700  0.32570455  0.85251223     0.12800
H2319       H  0.20756818  0.31621998  0.84858155     0.13300
H2320       H  0.22140829  0.29056663  0.79055005     0.15200
C2321       C  0.18473153  0.64529989  0.41965203    -0.04800
C2322       C  0.20196975  0.65717244  0.41695987    -0.04700
C2323       C  0.20400784  0.66962805  0.40009250    -0.22900
C2324       C  0.18862503  0.67075503  0.38583354     0.19300
C2325       C  0.17061203  0.65996852  0.38919980     0.16600
C2326       C  0.16886606  0.64711135  0.40597644    -0.17900
C2327       C  0.15510530  0.66138767  0.37512450    -0.19700
C2328       C  0.15815225  0.67168534  0.35700269    -0.12300
C2329       C  0.17663449  0.68092460  0.35270747     0.04400
C2330       C  0.19148728  0.68123956  0.36761545    -0.24400
H2331       H  0.21420496  0.65621476  0.42755850     0.09500
H2332       H  0.21783595  0.67793453  0.39791710     0.13100
H2333       H  0.15535120  0.63830528  0.40825055     0.13000
H2334       H  0.14111143  0.65342714  0.37751704     0.12800
H2335       H  0.14673893  0.67080845  0.34550120     0.13300
H2336       H  0.20597524  0.68784330  0.36418621     0.15200
C2337       C  0.19360761  0.62974151  0.58142663    -0.04800
C2338       C  0.18783220  0.62035873  0.59949429    -0.04700
C2339       C  0.19140938  0.62961631  0.61800154    -0.22900
C2340       C  0.20107523  0.64833360  0.61882361     0.19300
C2341       C  0.20661008  0.65815788  0.60078643     0.16600
C2342       C  0.20266834  0.64889532  0.58222661    -0.17900
C2343       C  0.21672927  0.67669290  0.60167472    -0.19700
C2344       C  0.22216845  0.68491467  0.62026073    -0.12300
C2345       C  0.21712927  0.67496023  0.63816648     0.04400
C2346       C  0.20616919  0.65692707  0.63737820    -0.24400
H2347       H  0.18059881  0.60578987  0.59936028     0.09500
H2348       H  0.18702741  0.62190955  0.63170597     0.13100
H2349       H  0.20738983  0.65631535  0.56849144     0.13000
H2350       H  0.22114092  0.68441578  0.58799181     0.12800
H2351       H  0.23095618  0.69860925  0.62066719     0.13300
H2352       H  0.20265610  0.64903052  0.65124041     0.15200
C2353       C  0.19547752  0.36417849  0.41431294    -0.04800
C2354       C  0.21633917  0.36264752  0.41274178    -0.04700
C2355       C  0.22506174  0.35005576  0.39844982    -0.22900
C2356       C  0.21306002  0.33902063  0.38515365     0.19300
C2357       C  0.19199299  0.34031795  0.38653180     0.16600
C2358       C  0.18326521  0.35271819  0.40138677    -0.17900
C2359       C  0.18020186  0.32964790  0.37263265    -0.19700
C2360       C  0.18921807  0.31889041  0.35683731    -0.12300
C2361       C  0.21018487  0.31822794  0.35494140     0.04400
C2362       C  0.22190374  0.32754679  0.36986054    -0.24400
H2363       H  0.22591254  0.37114808  0.42275004     0.09500
H2364       H  0.24124105  0.34926387  0.39752966     0.13100
H2365       H  0.16711961  0.35378522  0.40264207     0.13000
H2366       H  0.16401822  0.33043889  0.37337918     0.12800
H2367       H  0.17978517  0.31223384  0.34542716     0.13300
H2368       H  0.23809159  0.32707943  0.36873132     0.15200
C2369       C  0.18409610  0.36884838  0.57475599    -0.04800
C2370       C  0.19457556  0.37710225  0.59108218    -0.04700
C2371       C  0.19581321  0.36681725  0.60937495    -0.22900
C2372       C  0.18627972  0.34817712  0.61190631     0.19300
C2373       C  0.17599467  0.33941289  0.59560143     0.16600
C2374       C  0.17520479  0.34967562  0.57701957    -0.17900
C2375       C  0.16582166  0.32107302  0.59855201    -0.19700
C2376       C  0.16459085  0.31236850  0.61779674    -0.12300
C2377       C  0.17406501  0.32150188  0.63421871     0.04400
C2378       C  0.18568395  0.33889599  0.63088008    -0.24400
H2379       H  0.20184230  0.39160165  0.58976056     0.09500
H2380       H  0.20374542  0.37374949  0.62175704     0.13100
H2381       H  0.16695661  0.34312071  0.56465105     0.13000
H2382       H  0.15776191  0.31413464  0.58626504     0.12800
H2383       H  0.15502338  0.29940342  0.62010301     0.13300
H2384       H  0.19257951  0.34634524  0.64360926     0.15200
C2385       C  0.86885384  0.17142886  0.68074796    -0.04800
C2386       C  0.87067007  0.16979631  0.65974618    -0.04700
C2387       C  0.88726113  0.16013964  0.65112904    -0.22900
C2388       C  0.90197757  0.15143927  0.66340114     0.19300
C2389       C  0.90078384  0.15402155  0.68445605     0.16600
C2390       C  0.88469090  0.16458548  0.69284860    -0.17900
C2391       C  0.91493558  0.14482078  0.69693977    -0.19700
C2392       C  0.92967555  0.13245947  0.68873374    -0.12300
C2393       C  0.93083157  0.12947797  0.66790931     0.04400
C2394       C  0.91729609  0.13942312  0.65518797    -0.24400
H2395       H  0.85862559  0.17454494  0.65003613     0.09500
H2396       H  0.88791404  0.15836230  0.63494677     0.13100
H2397       H  0.88358163  0.16588246  0.70906912     0.13000
H2398       H  0.91420300  0.14664831  0.71311785     0.12800
H2399       H  0.94021273  0.12514507  0.69865661     0.13300
H2400       H  0.91828227  0.13722713  0.63906479     0.15200
C2401       C  0.08942208  0.12643231  0.65033775    -0.04800
C2402       C  0.10788154  0.11737685  0.64593687    -0.04700
C2403       C  0.12590768  0.12755173  0.64932238    -0.22900
C2404       C  0.12592796  0.14690615  0.65758137     0.19300
C2405       C  0.10753009  0.15652797  0.66157950     0.16600
C2406       C  0.08936372  0.14636774  0.65758299    -0.17900
C2407       C  0.10770356  0.17559977  0.67065607    -0.19700
C2408       C  0.12579179  0.18426947  0.67708360    -0.12300
C2409       C  0.14405386  0.17443216  0.67378037     0.04400
C2410       C  0.14402200  0.15613719  0.66324473    -0.24400
H2411       H  0.10842127  0.10224356  0.64006209     0.09500
H2412       H  0.13988454  0.11995877  0.64616323     0.13100
H2413       H  0.07528176  0.15356074  0.66117654     0.13000
H2414       H  0.09377284  0.18322308  0.67393305     0.12800
H2415       H  0.12543797  0.19805566  0.68568396     0.13300
H2416       H  0.15800704  0.14814316  0.66127132     0.15200
C2417       C  0.93439503  0.85166000  0.68230656    -0.04800
C2418       C  0.93482328  0.83985481  0.69981888    -0.04700
C2419       C  0.91882005  0.82721392  0.70478091    -0.22900
C2420       C  0.90217118  0.82582293  0.69211829     0.19300
C2421       C  0.90194637  0.83681427  0.67388665     0.16600
C2422       C  0.91799450  0.84990957  0.66918600    -0.17900
C2423       C  0.88528471  0.83508603  0.66117544    -0.19700
C2424       C  0.86839849  0.82404305  0.66730510    -0.12300
C2425       C  0.86796095  0.81439573  0.68612275     0.04400
C2426       C  0.88524347  0.81464724  0.69804722    -0.24400
H2427       H  0.94740603  0.84082734  0.71000476     0.09500
H2428       H  0.91930230  0.81882025  0.71874282     0.13100
H2429       H  0.91774410  0.85869881  0.65545446     0.13000
H2430       H  0.88484079  0.84321160  0.64705661     0.12800
H2431       H  0.85502014  0.82450134  0.65815765     0.13300
H2432       H  0.88480634  0.80767646  0.71279442     0.15200
C2433       C  0.09652630  0.86281302  0.67120391    -0.04800
C2434       C  0.11433981  0.87336347  0.67514726    -0.04700
C2435       C  0.13297672  0.86431064  0.67242992    -0.22900
C2436       C  0.13430337  0.84452937  0.66542227     0.19300
C2437       C  0.11663189  0.83339099  0.66187211     0.16600
C2438       C  0.09779648  0.84252341  0.66505036    -0.17900
C2439       C  0.11822910  0.81370805  0.65429421    -0.19700
C2440       C  0.13703982  0.80572339  0.64911854    -0.12300
C2441       C  0.15454132  0.81708557  0.65194388     0.04400
C2442       C  0.15303850  0.83618971  0.66079351    -0.24400
H2443       H  0.11392013  0.88878205  0.68022938     0.09500
H2444       H  0.14640854  0.87302330  0.67526553     0.13100
H2445       H  0.08424272  0.83414279  0.66186828     0.13000
H2446       H  0.10488187  0.80488861  0.65141434     0.12800
H2447       H  0.13782170  0.79119289  0.64188487     0.13300
H2448       H  0.16647196  0.84521299  0.66259902     0.15200
loop_ 
_geom_bond_atom_site_label_1 
_geom_bond_atom_site_label_2 
_geom_bond_distance 
_geom_bond_site_symmetry_2 
_ccdc_geom_bond_type 
N1            N2   1.321       .  A
N1            C5   1.348       .  A
N1           Cu9   2.066       .  S
N2            C3   1.349       .  A
N2           Cu8   2.108       .  S
C3            C4   1.395       .  A
C3            H6   1.081       .  S
C4            C5   1.386       .  A
C4         C2433   1.494       .  S
C5            H7   1.082       .  S
Cu8          N11   2.108       .  S
Cu9          N19   2.066   1_455  S
Cu10         N12   2.116       .  S
Cu10         N18   2.115       .  S
N11          N12   1.326   1_455  A
N11          C15   1.350       .  A
N12          C13   1.354       .  A
C13          C14   1.391   1_655  A
C13          H16   1.082       .  S
C14          C15   1.388       .  A
C14          C38   1.493   1_565  S
C15          H17   1.082       .  S
N18          N19   1.324       .  A
N18          C22   1.354       .  A
N19          C20   1.342       .  A
C20          C21   1.379       .  A
C20          H23   1.082       .  S
C21          C22   1.392       .  A
C21        C2417   1.482       .  S
C22          H24   1.082       .  S
N25          N26   1.322       .  A
N25          C29   1.347       .  A
N25         Cu33   2.069       .  S
N26          C27   1.349       .  A
N26         Cu32   2.108       .  S
C27          C28   1.394       .  A
C27          H30   1.082       .  S
C28          C29   1.386       .  A
C28        C2401   1.493       .  S
C29          H31   1.082       .  S
Cu32         N35   2.109       .  S
Cu33         N43   2.068   1_455  S
Cu34         N36   2.109       .  S
Cu34         N42   2.108       .  S
N35          N36   1.325   1_455  A
N35          C39   1.350       .  A
N36          C37   1.353       .  A
C37          C38   1.390   1_655  A
C37          H40   1.082       .  S
C38          C39   1.389       .  A
C39          H41   1.082       .  S
N42          N43   1.324       .  A
N42          C46   1.350       .  A
N43          C44   1.345       .  A
C44          C45   1.379       .  A
C44          H47   1.082       .  S
C45          C46   1.389       .  A
C45        C2393   1.476       .  S
C46          H48   1.082       .  S
N49          N50   1.324       .  A
N49          C53   1.346       .  A
N49         Cu57   2.075       .  S
N50          C51   1.351       .  A
N50         Cu56   2.110       .  S
C51          C52   1.391       .  A
C51          H54   1.082       .  S
C52          C53   1.381       .  A
C52        C2353   1.480       .  S
C53          H55   1.082       .  S
Cu56         N59   2.109       .  S
Cu57         N67   2.075       .  S
Cu58         N60   2.102       .  S
Cu58         N66   2.102       .  S
N59          N60   1.325       .  A
N59          C63   1.354       .  A
N60          C61   1.348       .  A
C61          C62   1.388       .  A
C61          H64   1.082       .  S
C62          C63   1.390       .  A
C62          C86   1.491       .  S
C63          H65   1.082       .  S
N66          N67   1.322       .  A
N66          C70   1.349       .  A
N67          C68   1.347       .  A
C68          C69   1.386       .  A
C68          H71   1.082       .  S
C69          C70   1.393       .  A
C69        C2369   1.493       .  S
C70          H72   1.082       .  S
N73          N74   1.320       .  A
N73          C77   1.343       .  A
N73         Cu81   2.057       .  S
N74          C75   1.349       .  A
N74         Cu80   2.092       .  S
C75          C76   1.393       .  A
C75          H78   1.082       .  S
C76          C77   1.384       .  A
C76        C2337   1.487       .  S
C77          H79   1.081       .  S
Cu80         N83   2.093       .  S
Cu81         N91   2.058       .  S
Cu82         N84   2.121       .  S
Cu82         N90   2.120       .  S
N83          N84   1.326       .  A
N83          C87   1.347       .  A
N84          C85   1.355       .  A
C85          C86   1.393       .  A
C85          H88   1.082       .  S
C86          C87   1.385       .  A
C87          H89   1.082       .  S
N90          N91   1.323       .  A
N90          C94   1.353       .  A
N91          C92   1.343       .  A
C92          C93   1.378       .  A
C92          H95   1.082       .  S
C93          C94   1.392       .  A
C93        C2321   1.480       .  S
C94          H96   1.082       .  S
N97         C101   1.366       .  A
N97          C98   1.367       .  A
N97        C2305   1.443       .  S
C98          C99   1.389       .  A
C98        C2273   1.499       .  S
C99         C100   1.366       .  A
C99         H102   1.081       .  S
C100        C101   1.378       .  A
C100        H103   1.082       .  S
C101       C2297   1.491       .  S
N104        C108   1.370       .  A
N104        C105   1.369       .  A
N104       C2313   1.464       .  S
C105        C106   1.380       .  A
C105       C2249   1.480       .  S
C106        C107   1.363       .  A
C106        H109   1.083       .  S
C107        C108   1.382       .  A
C107        H110   1.082       .  S
C108       C2265   1.489       .  S
N111        C115   1.369       .  A
N111        C112   1.368       .  A
N111       C2225   1.447       .  S
C112        C113   1.386       .  A
C112       C2193   1.498       .  S
C113        C114   1.365       .  A
C113        H116   1.082       .  S
C114        C115   1.381       .  A
C114        H117   1.082       .  S
C115       C2209   1.499       .  S
N118        C122   1.370       .  A
N118        C119   1.371       .  A
N118       C2233   1.469       .  S
C119        C120   1.381       .  A
C119       C2177   1.487       .  S
C120        C121   1.364       .  A
C120        H123   1.083       .  S
C121        C122   1.383       .  A
C121        H124   1.082       .  S
C122       C2289   1.495       .  S
N125        C129   1.365       .  A
N125        C126   1.364       .  A
N125       C2161   1.445       .  S
C126        C127   1.383       .  A
C126       C2377   1.482       .  S
C127        C128   1.368       .  A
C127        H130   1.083       .  S
C128        C129   1.381       .  A
C128        H131   1.082       .  S
C129       C2257   1.488       .  S
N132        C136   1.371       .  A
N132        C133   1.372       .  A
N132       C2169   1.463       .  S
C133        C134   1.379       .  A
C133       C2409   1.484       .  S
C134        C135   1.362       .  A
C134        H137   1.083       .  S
C135        C136   1.383       .  A
C135        H138   1.082       .  S
C136       C2217   1.494       .  S
N139        N140   1.322       .  A
N139        C143   1.340       .  A
N139       Cu147   2.052       .  S
N140        C141   1.348       .  A
N140       Cu146   2.089       .  S
C141        C142   1.388       .  A
C141        H144   1.082       .  S
C142        C143   1.378       .  A
C142       C2129   1.473       .  S
C143        H145   1.082       .  S
Cu146       N149   2.090       .  S
Cu147       N157   2.053   1_554  S
Cu148       N150   2.099       .  S
Cu148       N156   2.098       .  S
N149        N150   1.325   1_554  A
N149        C153   1.349       .  A
N150        C151   1.348       .  A
C151        C152   1.387   1_556  A
C151        H154   1.082       .  S
C152        C153   1.386       .  A
C152        C176   1.483   1_655  S
C153        H155   1.082       .  S
N156        N157   1.320       .  A
N156        C160   1.347       .  A
N157        C158   1.345       .  A
C158        C159   1.383       .  A
C158        H161   1.082       .  S
C159        C160   1.393       .  A
C159       C2145   1.487       .  S
C160        H162   1.081       .  S
N163        N164   1.323       .  A
N163        C167   1.349       .  A
N163       Cu171   2.077       .  S
N164        C165   1.345       .  A
N164       Cu170   2.091       .  S
C165        C166   1.387       .  A
C165        H168   1.082       .  S
C166        C167   1.384       .  A
C166       C2113   1.482       .  S
C167        H169   1.082       .  S
Cu170       N173   2.090       .  S
Cu171       N181   2.077   1_556  S
Cu172       N174   2.094       .  S
Cu172       N180   2.094       .  S
N173        N174   1.323   1_556  A
N173        C177   1.348       .  A
N174        C175   1.350       .  A
C175        C176   1.388       .  A
C175        H178   1.082       .  S
C176        C177   1.386   1_554  A
C177        H179   1.082       .  S
N180        N181   1.323       .  A
N180        C184   1.347       .  A
N181        C182   1.346       .  A
C182        C183   1.386       .  A
C182        H185   1.081       .  S
C183        C184   1.391       .  A
C183       C2105   1.490       .  S
C184        H186   1.081       .  S
N187        N188   1.325       .  A
N187        C191   1.351       .  A
N187       Cu195   2.091       .  S
N188        C189   1.352       .  A
N188       Cu194   2.124       .  S
C189        C190   1.394       .  A
C189        H192   1.082       .  S
C190        C191   1.386       .  A
C190       C2081   1.496       .  S
C191        H193   1.082       .  S
Cu194       N197   2.124       .  S
Cu195       N205   2.091   1_556  S
Cu196       N198   2.094   1_554  S
Cu196       N204   2.094       .  S
N197        N198   1.324       .  A
N197        C201   1.353       .  A
N198        C199   1.351   1_556  A
C199        C200   1.387   1_554  A
C199        H202   1.082       .  S
C200        C201   1.394       .  A
C200        C224   1.494   1_655  S
C201        H203   1.082       .  S
N204        N205   1.323       .  A
N204        C208   1.346       .  A
N205        C206   1.351       .  A
C206        C207   1.389       .  A
C206        H209   1.082       .  S
C207        C208   1.390       .  A
C207       C2065   1.493       .  S
C208        H210   1.082       .  S
N211        N212   1.322       .  A
N211        C215   1.349       .  A
N211       Cu219   2.080       .  S
N212        C213   1.346       .  A
N212       Cu218   2.092       .  S
C213        C214   1.390       .  A
C213        H216   1.082       .  S
C214        C215   1.387       .  A
C214       C2241   1.489       .  S
C215        H217   1.082       .  S
Cu218       N221   2.092       .  S
Cu219       N229   2.080   1_556  S
Cu220       N222   2.120       .  S
Cu220       N228   2.120       .  S
N221        N222   1.324   1_556  A
N221        C225   1.350       .  A
N222        C223   1.354       .  A
C223        C224   1.394   1_554  A
C223        H226   1.082       .  S
C224        C225   1.387       .  A
C225        H227   1.082       .  S
N228        N229   1.325       .  A
N228        C232   1.351       .  A
N229        C230   1.348       .  A
C230        C231   1.385       .  A
C230        H233   1.082       .  S
C231        C232   1.394       .  A
C231       C2049   1.493       .  S
C232        H234   1.082       .  S
N235        N236   1.323       .  A
N235        C239   1.342       .  A
N235       Cu243   2.067   1_565  S
N236        C237   1.353       .  A
N236       Cu242   2.107       .  S
C237        C238   1.391       .  A
C237        H240   1.082       .  S
C238        C239   1.380       .  A
C238       C2017   1.482       .  S
C239        H241   1.082       .  S
Cu242       N245   2.108       .  S
Cu243       N253   2.066       .  S
Cu244       N246   2.101       .  S
Cu244       N252   2.100       .  S
N245        N246   1.325   1_565  A
N245        C249   1.351       .  A
N246        C247   1.351       .  A
C247        C248   1.388       .  A
C247        H250   1.082       .  S
C248        C249   1.389   1_545  A
C248        C272   1.490   1_546  S
C249        H251   1.082       .  S
N252        N253   1.320       .  A
N252        C256   1.347       .  A
N253        C254   1.346       .  A
C254        C255   1.388       .  A
C254        H257   1.081       .  S
C255        C256   1.395       .  A
C255       C2033   1.495       .  S
C256        H258   1.081       .  S
N259        N260   1.323       .  A
N259        C263   1.341       .  A
N259       Cu267   2.058   1_545  S
N260        C261   1.353       .  A
N260       Cu266   2.111       .  S
C261        C262   1.393       .  A
C261        H264   1.082       .  S
C262        C263   1.379       .  A
C262       C2001   1.483       .  S
C263        H265   1.082       .  S
Cu266       N269   2.112       .  S
Cu267       N277   2.058       .  S
Cu268       N270   2.102       .  S
Cu268       N276   2.101       .  S
N269        N270   1.326   1_545  A
N269        C273   1.352       .  A
N270        C271   1.350       .  A
C271        C272   1.387       .  A
C271        H274   1.082       .  S
C272        C273   1.390   1_565  A
C273        H275   1.082       .  S
N276        N277   1.321       .  A
N276        C280   1.347       .  A
N277        C278   1.346       .  A
C278        C279   1.383       .  A
C278        H281   1.082       .  S
C279        C280   1.392       .  A
C279       C1985   1.485       .  S
C280        H282   1.082       .  S
N283        N284   1.322       .  A
N283        C287   1.346       .  A
N283       Cu291   2.069       .  S
N284        C285   1.348       .  A
N284       Cu290   2.102       .  S
C285        C286   1.393       .  A
C285        H288   1.082       .  S
C286        C287   1.385       .  A
C286       C1961   1.490       .  S
C287        H289   1.082       .  S
Cu290       N293   2.103       .  S
Cu291       N301   2.069       .  S
Cu292       N294   2.103       .  S
Cu292       N300   2.103       .  S
N293        N294   1.325       .  A
N293        C297   1.351       .  A
N294        C295   1.350       .  A
C295        C296   1.388       .  A
C295        H298   1.082       .  S
C296        C297   1.388       .  A
C296        C320   1.489       .  S
C297        H299   1.082       .  S
N300        N301   1.322       .  A
N300        C304   1.350       .  A
N301        C302   1.345       .  A
C302        C303   1.385       .  A
C302        H305   1.081       .  S
C303        C304   1.393       .  A
C303       C1969   1.491       .  S
C304        H306   1.082       .  S
N307        N308   1.323       .  A
N307        C311   1.345       .  A
N307       Cu315   2.073       .  S
N308        C309   1.352       .  A
N308       Cu314   2.104       .  S
C309        C310   1.389       .  A
C309        H312   1.082       .  S
C310        C311   1.382       .  A
C310       C1929   1.482       .  S
C311        H313   1.082       .  S
Cu314       N317   2.105       .  S
Cu315       N325   2.073       .  S
Cu316       N318   2.101       .  S
Cu316       N324   2.100       .  S
N317        N318   1.325       .  A
N317        C321   1.351       .  A
N318        C319   1.350       .  A
C319        C320   1.388       .  A
C319        H322   1.082       .  S
C320        C321   1.389       .  A
C321        H323   1.082       .  S
N324        N325   1.322       .  A
N324        C328   1.348       .  A
N325        C326   1.347       .  A
C326        C327   1.386       .  A
C326        H329   1.082       .  S
C327        C328   1.393       .  A
C327       C1945   1.492       .  S
C328        H330   1.081       .  S
N331        C335   1.362       .  A
N331        C332   1.362       .  A
N331       C1905   1.442       .  S
C332        C333   1.388       .  A
C332       C2385   1.489       .  S
C333        C334   1.369       .  A
C333        H336   1.082       .  S
C334        C335   1.379       .  A
C334        H337   1.082       .  S
C335       C1889   1.483       .  S
N338        C342   1.360       .  A
N338        C339   1.360       .  A
N338       C1913   1.449       .  S
C339        C340   1.384       .  A
C339       C1977   1.479       .  S
C340        C341   1.373       .  A
C340        H343   1.083       .  S
C341        C342   1.378       .  A
C341        H344   1.082       .  S
C342       C1873   1.476       .  S
N345        C349   1.359       .  A
N345        C346   1.364       .  A
N345       C1857   1.451       .  S
C346        C347   1.384       .  A
C346       C1825   1.479       .  S
C347        C348   1.369       .  A
C347        H350   1.083       .  S
C348        C349   1.378       .  A
C348        H351   1.082       .  S
C349       C1841   1.474       .  S
N352        C356   1.365       .  A
N352        C353   1.370       .  A
N352       C1865   1.448       .  S
C353        C354   1.383       .  A
C353       C2089   1.492       .  S
C354        C355   1.366       .  A
C354        H357   1.083       .  S
C355        C356   1.380       .  A
C355        H358   1.082       .  S
C356       C1881   1.486       .  S
N359        C363   1.363       .  A
N359        C360   1.366       .  A
N359       C1809   1.452       .  S
C360        C361   1.385       .  A
C360       C1801   1.485       .  S
C361        C362   1.367       .  A
C361        H364   1.083       .  S
C362        C363   1.377       .  A
C362        H365   1.082       .  S
C363       C1897   1.474       .  S
N366        C370   1.359       .  A
N366        C367   1.361       .  A
N366       C1817   1.447       .  S
C367        C368   1.385       .  A
C367       C2041   1.485       .  S
C368        C369   1.368       .  A
C368        H371   1.083       .  S
C369        C370   1.378       .  A
C369        H372   1.082       .  S
C370       C1849   1.475       .  S
N373        N374   1.322       .  A
N373        C377   1.346       .  A
N373       Cu381   2.064       .  S
N374        C375   1.347       .  A
N374       Cu380   2.098       .  S
C375        C376   1.391       .  A
C375        H378   1.082       .  S
C376        C377   1.383       .  A
C376       C1769   1.484       .  S
C377        H379   1.082       .  S
Cu380       N383   2.099       .  S
Cu381       N391   2.064       .  S
Cu382       N384   2.114       .  S
Cu382       N390   2.113       .  S
N383        N384   1.325       .  A
N383        C387   1.351       .  A
N384        C385   1.352       .  A
C385        C386   1.391       .  A
C385        H388   1.082       .  S
C386        C387   1.388       .  A
C386        C410   1.493       .  S
C387        H389   1.082       .  S
N390        N391   1.322       .  A
N390        C394   1.350       .  A
N391        C392   1.345       .  A
C392        C393   1.384       .  A
C392        H395   1.082       .  S
C393        C394   1.395       .  A
C393       C1777   1.492       .  S
C394        H396   1.081       .  S
N397        N398   1.323       .  A
N397        C401   1.350       .  A
N397       Cu405   2.084       .  S
N398        C399   1.346       .  A
N398       Cu404   2.099       .  S
C399        C400   1.390       .  A
C399        H402   1.082       .  S
C400        C401   1.387       .  A
C400       C1793   1.490       .  S
C401        H403   1.082       .  S
Cu404       N407   2.098       .  S
Cu405       N415   2.085       .  S
Cu406       N408   2.115       .  S
Cu406       N414   2.116       .  S
N407        N408   1.324       .  A
N407        C411   1.351       .  A
N408        C409   1.352       .  A
C409        C410   1.392       .  A
C409        H412   1.082       .  S
C410        C411   1.388       .  A
C411        H413   1.082       .  S
N414        N415   1.325       .  A
N414        C418   1.351       .  A
N415        C416   1.349       .  A
C416        C417   1.384       .  A
C416        H419   1.082       .  S
C417        C418   1.391       .  A
C417       C2201   1.486       .  S
C418        H420   1.082       .  S
N421        C425   1.360       .  A
N421        C422   1.362       .  A
N421       C1745   1.447       .  S
C422        C423   1.383       .  A
C422       C1953   1.481       .  S
C423        C424   1.369       .  A
C423        H426   1.083       .  S
C424        C425   1.380       .  A
C424        H427   1.082       .  S
C425       C1729   1.482       .  S
N428        C432   1.365       .  A
N428        C429   1.369       .  A
N428       C1753   1.447       .  S
C429        C430   1.386       .  A
C429       C1697   1.493       .  S
C430        C431   1.365       .  A
C430        H433   1.082       .  S
C431        C432   1.380       .  A
C431        H434   1.082       .  S
C432       C1713   1.488       .  S
N435        C439   1.365       .  A
N435        C436   1.365       .  A
N435       C1689   1.456       .  S
C436        C437   1.381       .  A
C436       C1649   1.475       .  S
C437        C438   1.366       .  A
C437        H440   1.083       .  S
C438        C439   1.380       .  A
C438        H441   1.082       .  S
C439       C1673   1.476       .  S
N442        C446   1.362       .  A
N442        C443   1.363       .  A
N442       C1681   1.448       .  S
C443        C444   1.382       .  A
C443       C2073   1.482       .  S
C444        C445   1.370       .  A
C444        H447   1.083       .  S
C445        C446   1.381       .  A
C445        H448   1.082       .  S
C446       C1737   1.484       .  S
N449        C453   1.360       .  A
N449        C450   1.358       .  A
N449       C1633   1.449       .  S
C450        C451   1.383       .  A
C450       C1785   1.479       .  S
C451        C452   1.374       .  A
C451        H454   1.082       .  S
C452        C453   1.379       .  A
C452        H455   1.082       .  S
C453       C1721   1.475       .  S
N456        C460   1.360       .  A
N456        C457   1.357       .  A
N456       C1641   1.442       .  S
C457        C458   1.384       .  A
C457       C2009   1.474       .  S
C458        C459   1.371       .  A
C458        H461   1.083       .  S
C459        C460   1.380       .  A
C459        H462   1.082       .  S
C460       C1665   1.478       .  S
N463        N464   1.319       .  A
N463        C467   1.345       .  A
N463       Cu471   2.063       .  S
N464        C465   1.349       .  A
N464       Cu470   2.097       .  S
C465        C466   1.396       .  A
C465        H468   1.081       .  S
C466        C467   1.388       .  A
C466       C1617   1.496       .  S
C467        H469   1.081       .  S
Cu470       N473   2.099       .  S
Cu471       N481   2.063   1_565  S
Cu472       N474   2.130   1_545  S
Cu472       N480   2.128       .  S
N473        N474   1.327       .  A
N473        C477   1.349       .  A
N474        C475   1.355   1_565  A
C475        C476   1.394   1_545  A
C475        H478   1.082       .  S
C476        C477   1.385       .  A
C476        C500   1.493       .  S
C477        H479   1.082       .  S
N480        N481   1.323       .  A
N480        C484   1.358       .  A
N481        C482   1.341       .  A
C482        C483   1.380       .  A
C482        H485   1.082       .  S
C483        C484   1.397       .  A
C483       C2185   1.491       .  S
C484        H486   1.082       .  S
N487        N488   1.323       .  A
N487        C491   1.346       .  A
N487       Cu495   2.072   1_545  S
N488        C489   1.349       .  A
N488       Cu494   2.098       .  S
C489        C490   1.390       .  A
C489        H492   1.082       .  S
C490        C491   1.384       .  A
C490       C1585   1.485       .  S
C491        H493   1.082       .  S
Cu494       N497   2.099   1_545  S
Cu495       N505   2.072       .  S
Cu496       N498   2.119       .  S
Cu496       N504   2.119       .  S
N497        N498   1.325       .  A
N497        C501   1.352   1_565  A
N498        C499   1.352       .  A
C499        C500   1.392   1_554  A
C499        H502   1.082       .  S
C500        C501   1.388   1_566  A
C501        H503   1.082       .  S
N504        N505   1.323       .  A
N504        C508   1.351       .  A
N505        C506   1.347       .  A
C506        C507   1.385       .  A
C506        H509   1.082       .  S
C507        C508   1.397       .  A
C507       C1601   1.497       .  S
C508        H510   1.082       .  S
N511        N512   1.323       .  A
N511        C515   1.346       .  A
N511       Cu519   2.067       .  S
N512        C513   1.351       .  A
N512       Cu518   2.116       .  S
C513        C514   1.394       .  A
C513        H516   1.082       .  S
C514        C515   1.382       .  A
C514       C1569   1.489       .  S
C515        H517   1.082       .  S
Cu518       N521   2.116       .  S
Cu519       N529   2.067       .  S
Cu520       N522   2.101       .  S
Cu520       N528   2.101       .  S
N521        N522   1.326       .  A
N521        C525   1.353       .  A
N522        C523   1.350       .  A
C523        C524   1.387       .  A
C523        H526   1.082       .  S
C524        C525   1.391       .  A
C524        C548   1.491       .  S
C525        H527   1.082       .  S
N528        N529   1.322       .  A
N528        C532   1.350       .  A
N529        C530   1.346       .  A
C530        C531   1.383       .  A
C530        H533   1.082       .  S
C531        C532   1.391       .  A
C531       C1833   1.485       .  S
C532        H534   1.082       .  S
N535        N536   1.323       .  A
N535        C539   1.348       .  A
N535       Cu543   2.071       .  S
N536        C537   1.349       .  A
N536       Cu542   2.109       .  S
C537        C538   1.391       .  A
C537        H540   1.082       .  S
C538        C539   1.382       .  A
C538       C2281   1.484       .  S
C539        H541   1.082       .  S
Cu542       N545   2.109       .  S
Cu543       N553   2.071       .  S
Cu544       N546   2.097       .  S
Cu544       N552   2.097       .  S
N545        N546   1.324       .  A
N545        C549   1.351       .  A
N546        C547   1.351       .  A
C547        C548   1.388       .  A
C547        H550   1.082       .  S
C548        C549   1.391       .  A
C549        H551   1.082       .  S
N552        N553   1.323       .  A
N552        C556   1.348       .  A
N553        C554   1.346       .  A
C554        C555   1.382       .  A
C554        H557   1.082       .  S
C555        C556   1.388       .  A
C555       C1553   1.479       .  S
C556        H558   1.082       .  S
N559        C563   1.363       .  A
N559        C560   1.366       .  A
N559       C1537   1.459       .  S
C560        C561   1.381       .  A
C560       C2345   1.475       .  S
C561        C562   1.369       .  A
C561        H564   1.083       .  S
C562        C563   1.379       .  A
C562        H565   1.082       .  S
C563       C1521   1.472       .  S
N566        C570   1.368       .  A
N566        C567   1.361       .  A
N566       C1545   1.440       .  S
C567        C568   1.382       .  A
C567       C2441   1.485       .  S
C568        C569   1.371       .  A
C568        H571   1.083       .  S
C569        C570   1.385       .  A
C569        H572   1.082       .  S
C570       C1513   1.502       .  S
N573        C577   1.369       .  A
N573        C574   1.364       .  A
N573       C1489   1.455       .  S
C574        C575   1.381       .  A
C574       C1481   1.480       .  S
C575        C576   1.366       .  A
C575        H578   1.083       .  S
C576        C577   1.381       .  A
C576        H579   1.082       .  S
C577       C1505   1.487       .  S
N580        C584   1.358       .  A
N580        C581   1.359       .  A
N580       C1497   1.446       .  S
C581        C582   1.385       .  A
C581       C1625   1.479       .  S
C582        C583   1.373       .  A
C582        H585   1.083       .  S
C583        C584   1.378       .  A
C583        H586   1.082       .  S
C584       C1457   1.472       .  S
N587        C591   1.362       .  A
N587        C588   1.364       .  A
N587       C1441   1.448       .  S
C588        C589   1.381       .  A
C588       C1561   1.476       .  S
C589        C590   1.366       .  A
C589        H592   1.083       .  S
C590        C591   1.381       .  A
C590        H593   1.082       .  S
C591       C1465   1.475       .  S
N594        C598   1.365       .  A
N594        C595   1.369       .  A
N594       C1449   1.448       .  S
C595        C596   1.389       .  A
C595       C2121   1.493       .  S
C596        C597   1.362       .  A
C596        H599   1.082       .  S
C597        C598   1.375       .  A
C597        H600   1.082       .  S
C598       C1529   1.478       .  S
N601        C605   1.370       .  A
N601        C602   1.371       .  A
N601       C1433   1.460       .  S
C602        C603   1.383       .  A
C602       C1577   1.484       .  S
C603        C604   1.362       .  A
C603        H606   1.083       .  S
C604        C605   1.378       .  A
C604        H607   1.083       .  S
C605       C1409   1.478       .  S
N608        C612   1.359       .  A
N608        C609   1.362       .  A
N608       C1425   1.447       .  S
C609        C610   1.387       .  A
C609       C2153   1.479       .  S
C610        C611   1.368       .  A
C610        H613   1.083       .  S
C611        C612   1.376       .  A
C611        H614   1.082       .  S
C612       C1393   1.474       .  S
N615        C619   1.360       .  A
N615        C616   1.361       .  A
N615       C1377   1.444       .  S
C616        C617   1.385       .  A
C616       C1937   1.481       .  S
C617        C618   1.370       .  A
C617        H620   1.083       .  S
C618        C619   1.378       .  A
C618        H621   1.082       .  S
C619       C1401   1.476       .  S
N622        C626   1.366       .  A
N622        C623   1.367       .  A
N622       C1385   1.461       .  S
C623        C624   1.382       .  A
C623       C2425   1.478       .  S
C624        C625   1.366       .  A
C624        H627   1.083       .  S
C625        C626   1.379       .  A
C625        H628   1.082       .  S
C626       C1369   1.478       .  S
N629        C633   1.365       .  A
N629        C630   1.364       .  A
N629       C1345   1.445       .  S
C630        C631   1.385       .  A
C630       C1337   1.486       .  S
C631        C632   1.366       .  A
C631        H634   1.082       .  S
C632        C633   1.379       .  A
C632        H635   1.082       .  S
C633       C1361   1.483       .  S
N636        C640   1.366       .  A
N636        C637   1.361       .  A
N636       C1353   1.446       .  S
C637        C638   1.382       .  A
C637       C2025   1.480       .  S
C638        C639   1.368       .  A
C638        H641   1.083       .  S
C639        C640   1.382       .  A
C639        H642   1.082       .  S
C640       C1417   1.488       .  S
N643        N644   1.323       .  A
N643        C647   1.349       .  A
N643       Cu651   2.089       .  S
N644        C645   1.349       .  A
N644       Cu650   2.107       .  S
C645        C646   1.393       .  A
C645        H648   1.081       .  S
C646        C647   1.389       .  A
C646       C1305   1.498       .  S
C647        H649   1.081       .  S
Cu650       N653   2.107       .  S
Cu651       N661   2.089       .  S
Cu652       N654   2.102       .  S
Cu652       N660   2.103       .  S
N653        N654   1.324       .  A
N653        C657   1.351       .  A
N654        C655   1.352       .  A
C655        C656   1.389       .  A
C655        H658   1.082       .  S
C656        C657   1.390       .  A
C656        C680   1.492       .  S
C657        H659   1.082       .  S
N660        N661   1.324       .  A
N660        C664   1.347       .  A
N661        C662   1.350       .  A
C662        C663   1.388       .  A
C662        H665   1.082       .  S
C663        C664   1.391       .  A
C663       C1321   1.494       .  S
C664        H666   1.082       .  S
N667        N668   1.321       .  A
N667        C671   1.347       .  A
N667       Cu675   2.071       .  S
N668        C669   1.350       .  A
N668       Cu674   2.101       .  S
C669        C670   1.392       .  A
C669        H672   1.082       .  S
C670        C671   1.385       .  A
C670       C1473   1.489       .  S
C671        H673   1.082       .  S
Cu674       N677   2.102       .  S
Cu675       N685   2.071       .  S
Cu676       N678   2.119       .  S
Cu676       N684   2.118       .  S
N677        N678   1.326       .  A
N677        C681   1.350       .  A
N678        C679   1.353       .  A
C679        C680   1.391       .  A
C679        H682   1.082       .  S
C680        C681   1.387       .  A
C681        H683   1.082       .  S
N684        N685   1.323       .  A
N684        C688   1.354       .  A
N685        C686   1.343       .  A
C686        C687   1.381       .  A
C686        H689   1.082       .  S
C687        C688   1.393       .  A
C687       C1329   1.482       .  S
C688        H690   1.082       .  S
N691        C695   1.365       .  A
N691        C692   1.368       .  A
N691       C1281   1.458       .  S
C692        C693   1.383       .  A
C692       C1313   1.486       .  S
C693        C694   1.369       .  A
C693        H696   1.083       .  S
C694        C695   1.378       .  A
C694        H697   1.082       .  S
C695       C1265   1.485       .  S
N698        C702   1.365       .  A
N698        C699   1.360       .  A
N698       C1289   1.438       .  S
C699        C700   1.382       .  A
C699       C1993   1.483       .  S
C700        C701   1.366       .  A
C700        H703   1.083       .  S
C701        C702   1.385       .  A
C701        H704   1.082       .  S
C702       C1257   1.495       .  S
N705        C709   1.358       .  A
N705        C706   1.365       .  A
N705       C1233   1.450       .  S
C706        C707   1.384       .  A
C706       C1921   1.480       .  S
C707        C708   1.367       .  A
C707        H710   1.083       .  S
C708        C709   1.378       .  A
C708        H711   1.083       .  S
C709       C1217   1.473       .  S
N712        C716   1.362       .  A
N712        C713   1.366       .  A
N712       C1241   1.448       .  S
C713        C714   1.381       .  A
C713       C1209   1.486       .  S
C714        C715   1.368       .  A
C714        H717   1.083       .  S
C715        C716   1.380       .  A
C715        H718   1.083       .  S
C716       C1273   1.479       .  S
N719        C723   1.365       .  A
N719        C720   1.368       .  A
N719       C1185   1.459       .  S
C720        C721   1.382       .  A
C720       C1169   1.483       .  S
C721        C722   1.364       .  A
C721        H724   1.083       .  S
C722        C723   1.381       .  A
C722        H725   1.082       .  S
C723       C1249   1.488       .  S
N726        C730   1.356       .  A
N726        C727   1.355       .  A
N726       C1193   1.443       .  S
C727        C728   1.384       .  A
C727       C2137   1.467       .  S
C728        C729   1.371       .  A
C728        H731   1.083       .  S
C729        C730   1.379       .  A
C729        H732   1.083       .  S
C730       C1225   1.473       .  S
N733        N734   1.324       .  A
N733        C737   1.349       .  A
N733       Cu741   2.079       .  S
N734        C735   1.348       .  A
N734       Cu740   2.106       .  S
C735        C736   1.389       .  A
C735        H738   1.082       .  S
C736        C737   1.383       .  A
C736       C1145   1.483       .  S
C737        H739   1.082       .  S
Cu740       N743   2.106       .  S
Cu741       N751   2.080       .  S
Cu742       N744   2.094       .  S
Cu742       N750   2.095       .  S
N743        N744   1.323       .  A
N743        C747   1.351       .  A
N744        C745   1.350       .  A
C745        C746   1.388       .  A
C745        H748   1.082       .  S
C746        C747   1.391       .  A
C746        C770   1.490       .  S
C747        H749   1.082       .  S
N750        N751   1.322       .  A
N750        C754   1.346       .  A
N751        C752   1.349       .  A
C752        C753   1.390       .  A
C752        H755   1.081       .  S
C753        C754   1.393       .  A
C753       C1153   1.496       .  S
C754        H756   1.081       .  S
N757        N758   1.320       .  A
N757        C761   1.343       .  A
N757       Cu765   2.055       .  S
N758        C759   1.349       .  A
N758       Cu764   2.100       .  S
C759        C760   1.394       .  A
C759        H762   1.082       .  S
C760        C761   1.383       .  A
C760       C1657   1.487       .  S
C761        H763   1.081       .  S
Cu764       N767   2.102       .  S
Cu765       N775   2.055       .  S
Cu766       N768   2.114       .  S
Cu766       N774   2.112       .  S
N767        N768   1.327       .  A
N767        C771   1.350       .  A
N768        C769   1.351       .  A
C769        C770   1.390       .  A
C769        H772   1.082       .  S
C770        C771   1.387       .  A
C771        H773   1.082       .  S
N774        N775   1.322       .  A
N774        C778   1.354       .  A
N775        C776   1.342       .  A
C776        C777   1.377       .  A
C776        H779   1.082       .  S
C777        C778   1.392       .  A
C777       C1177   1.477       .  S
C778        H780   1.082       .  S
N781        C785   1.360       .  A
N781        C782   1.362       .  A
N781       C1121   1.446       .  S
C782        C783   1.385       .  A
C782       C1297   1.483       .  S
C783        C784   1.372       .  A
C783        H786   1.083       .  S
C784        C785   1.377       .  A
C784        H787   1.082       .  S
C785       C1113   1.478       .  S
N788        C792   1.369       .  A
N788        C789   1.372       .  A
N788       C1129   1.457       .  S
C789        C790   1.383       .  A
C789       C1609   1.488       .  S
C790        C791   1.364       .  A
C790        H793   1.083       .  S
C791        C792   1.379       .  A
C791        H794   1.083       .  S
C792       C1089   1.484       .  S
N795        C799   1.366       .  A
N795        C796   1.368       .  A
N795       C1073   1.456       .  S
C796        C797   1.381       .  A
C796       C2329   1.478       .  S
C797        C798   1.365       .  A
C797        H800   1.083       .  S
C798        C799   1.380       .  A
C798        H801   1.082       .  S
C799       C1065   1.478       .  S
N802        C806   1.360       .  A
N802        C803   1.363       .  A
N802       C1081   1.446       .  S
C803        C804   1.385       .  A
C803       C1041   1.483       .  S
C804        C805   1.369       .  A
C804        H807   1.083       .  S
C805        C806   1.377       .  A
C805        H808   1.082       .  S
C806       C1105   1.476       .  S
N809        C813   1.365       .  A
N809        C810   1.360       .  A
N809       C1025   1.441       .  S
C810        C811   1.383       .  A
C810       C1161   1.480       .  S
C811        C812   1.371       .  A
C811        H814   1.083       .  S
C812        C813   1.382       .  A
C812        H815   1.082       .  S
C813       C1097   1.491       .  S
N816        C820   1.364       .  A
N816        C817   1.358       .  A
N816       C1033   1.442       .  S
C817        C818   1.383       .  A
C817       C2097   1.475       .  S
C818        C819   1.372       .  A
C818        H821   1.083       .  S
C819        C820   1.382       .  A
C819        H822   1.082       .  S
C820       C1057   1.487       .  S
N823        N824   1.324       .  A
N823        C827   1.350       .  A
N823       Cu831   2.088       .  S
N824        C825   1.350       .  A
N824       Cu830   2.113       .  S
C825        C826   1.393       .  A
C825        H828   1.082       .  S
C826        C827   1.387       .  A
C826       C1201   1.494       .  S
C827        H829   1.082       .  S
Cu830       N833   2.112       .  S
Cu831       N841   2.088   1_655  S
Cu832       N834   2.094       .  S
Cu832       N840   2.094       .  S
N833        N834   1.324   1_655  A
N833        C837   1.351       .  A
N834        C835   1.350       .  A
C835        C836   1.387   1_455  A
C835        H838   1.082       .  S
C836        C837   1.391       .  A
C836        C860   1.490   1_565  S
C837        H839   1.082       .  S
N840        N841   1.323       .  A
N840        C844   1.346       .  A
N841        C842   1.349       .  A
C842        C843   1.390       .  A
C842        H845   1.081       .  S
C843        C844   1.391       .  A
C843       C1049   1.495       .  S
C844        H846   1.081       .  S
N847        N848   1.325       .  A
N847        C851   1.349       .  A
N847       Cu855   2.085   1_455  S
N848        C849   1.348       .  A
N848       Cu854   2.106       .  S
C849        C850   1.390       .  A
C849        H852   1.082       .  S
C850        C851   1.386       .  A
C850       C1017   1.489       .  S
C851        H853   1.082       .  S
Cu854       N857   2.106       .  S
Cu855       N865   2.085       .  S
Cu856       N858   2.093       .  S
Cu856       N864   2.093       .  S
N857        N858   1.323   1_455  A
N857        C861   1.352       .  A
N858        C859   1.349       .  A
C859        C860   1.387       .  A
C859        H862   1.082       .  S
C860        C861   1.391   1_655  A
C861        H863   1.082       .  S
N864        N865   1.323       .  A
N864        C868   1.345       .  A
N865        C866   1.351       .  A
C866        C867   1.388       .  A
C866        H869   1.082       .  S
C867        C868   1.389       .  A
C867       C1705   1.490       .  S
C868        H870   1.082       .  S
N871        C875   1.364       .  A
N871        C872   1.365       .  A
N871       C1001   1.441       .  S
C872        C873   1.390       .  A
C872       C1137   1.498       .  S
C873        C874   1.368       .  A
C873        H876   1.082       .  S
C874        C875   1.378       .  A
C874        H877   1.082       .  S
C875        C977   1.490       .  S
N878        C882   1.367       .  A
N878        C879   1.369       .  A
N878        C993   1.459       .  S
C879        C880   1.383       .  A
C879       C2057   1.483       .  S
C880        C881   1.368       .  A
C880        H883   1.083       .  S
C881        C882   1.378       .  A
C881        H884   1.082       .  S
C882        C961   1.478       .  S
N885        C889   1.361       .  A
N885        C886   1.360       .  A
N885        C945   1.443       .  S
C886        C887   1.384       .  A
C886       C1761   1.478       .  S
C887        C888   1.368       .  A
C887        H890   1.083       .  S
C888        C889   1.378       .  A
C888        H891   1.082       .  S
C889        C929   1.472       .  S
N892        C896   1.374       .  A
N892        C893   1.371       .  A
N892        C953   1.464       .  S
C893        C894   1.378       .  A
C893       C1593   1.480       .  S
C894        C895   1.361       .  A
C894        H897   1.082       .  S
C895        C896   1.381       .  A
C895        H898   1.083       .  S
C896        C985   1.482       .  S
N899        C903   1.366       .  A
N899        C900   1.362       .  A
N899        C913   1.444       .  S
C900        C901   1.380       .  A
C900       C1009   1.477       .  S
C901        C902   1.367       .  A
C901        H904   1.083       .  S
C902        C903   1.385       .  A
C902        H905   1.082       .  S
C903        C937   1.489       .  S
N906        C910   1.364       .  A
N906        C907   1.365       .  A
N906        C921   1.446       .  S
C907        C908   1.388       .  A
C907       C2361   1.494       .  S
C908        C909   1.368       .  A
C908        H911   1.082       .  S
C909        C910   1.379       .  A
C909        H912   1.082       .  S
C910        C969   1.483       .  S
C913        C914   1.404       .  A
C913        C918   1.408       .  A
C914        C915   1.399       .  A
C914        H923   1.082       .  S
C915        C916   1.403       .  A
C915        H924   1.083       .  S
C916        C922   1.410       .  A
C916        C917   1.415       .  A
C917        C919   1.403       .  A
C917        C918   1.412       .  A
C918        H925   1.084       .  S
C919        C920   1.401       .  A
C919        H926   1.083       .  S
C920        C921   1.405       .  A
C920        H927   1.083       .  S
C921        C922   1.407       .  A
C922        H928   1.084       .  S
C929        C930   1.400       .  A
C929        C934   1.408       .  A
C930        C931   1.392       .  A
C930        H939   1.082       .  S
C931        C932   1.401       .  A
C931        H940   1.083       .  S
C932        C938   1.397       .  A
C932        C933   1.412       .  A
C933        C935   1.406       .  A
C933        C934   1.407       .  A
C934        H941   1.084       .  S
C935        C936   1.404       .  A
C935        H942   1.083       .  S
C936        C937   1.406       .  A
C936        H943   1.081       .  S
C937        C938   1.407       .  A
C938        H944   1.084       .  S
C945        C946   1.403       .  A
C945        C950   1.407       .  A
C946        C947   1.399       .  A
C946        H955   1.082       .  S
C947        C948   1.403       .  A
C947        H956   1.088       .  S
C948        C954   1.407       .  A
C948        C949   1.411       .  A
C949        C951   1.400       .  A
C949        C950   1.411       .  A
C950        H957   1.084       .  S
C951        C952   1.401       .  A
C951        H958   1.088       .  S
C952        C953   1.413       .  A
C952        H959   1.074       .  S
C953        C954   1.411       .  A
C954        H960   1.088       .  S
C961        C962   1.401       .  A
C961        C966   1.407       .  A
C962        C963   1.395       .  A
C962        H971   1.083       .  S
C963        C964   1.402       .  A
C963        H972   1.084       .  S
C964        C970   1.399       .  A
C964        C965   1.413       .  A
C965        C967   1.406       .  A
C965        C966   1.405       .  A
C966        H973   1.084       .  S
C967        C968   1.402       .  A
C967        H974   1.083       .  S
C968        C969   1.404       .  A
C968        H975   1.083       .  S
C969        C970   1.405       .  A
C970        H976   1.085       .  S
C977        C978   1.406       .  A
C977        C982   1.407       .  A
C978        C979   1.402       .  A
C978        H987   1.082       .  S
C979        C980   1.406       .  A
C979        H988   1.084       .  S
C980        C986   1.407       .  A
C980        C981   1.411       .  A
C981        C983   1.401       .  A
C981        C982   1.401       .  A
C982        H989   1.084       .  S
C983        C984   1.396       .  A
C983        H990   1.084       .  S
C984        C985   1.405       .  A
C984        H991   1.082       .  S
C985        C986   1.411       .  A
C986        H992   1.084       .  S
C993        C994   1.409       .  A
C993        C998   1.413       .  A
C994        C995   1.406       .  A
C994       H1003   1.080       .  S
C995        C996   1.406       .  A
C995       H1004   1.083       .  S
C996       C1002   1.411       .  A
C996        C997   1.410       .  A
C997        C999   1.403       .  A
C997        C998   1.402       .  A
C998       H1005   1.080       .  S
C999       C1000   1.397       .  A
C999       H1006   1.083       .  S
C1000      C1001   1.403       .  A
C1000      H1007   1.083       .  S
C1001      C1002   1.410       .  A
C1002      H1008   1.083       .  S
C1009      C1010   1.403       .  A
C1009      C1014   1.406       .  A
C1010      C1011   1.403       .  A
C1010      H1019   1.083       .  S
C1011      C1012   1.406       .  A
C1011      H1020   1.083       .  S
C1012      C1018   1.411       .  A
C1012      C1013   1.413       .  A
C1013      C1015   1.402       .  A
C1013      C1014   1.405       .  A
C1014      H1021   1.085       .  S
C1015      C1016   1.398       .  A
C1015      H1022   1.084       .  S
C1016      C1017   1.405       .  A
C1016      H1023   1.083       .  S
C1017      C1018   1.411       .  A
C1018      H1024   1.084       .  S
C1025      C1026   1.403       .  A
C1025      C1030   1.407       .  A
C1026      C1027   1.401       .  A
C1026      H1035   1.083       .  S
C1027      C1028   1.405       .  A
C1027      H1036   1.083       .  S
C1028      C1034   1.408       .  A
C1028      C1029   1.414       .  A
C1029      C1031   1.405       .  A
C1029      C1030   1.409       .  A
C1030      H1037   1.084       .  S
C1031      C1032   1.402       .  A
C1031      H1038   1.083       .  S
C1032      C1033   1.404       .  A
C1032      H1039   1.083       .  S
C1033      C1034   1.407       .  A
C1034      H1040   1.084       .  S
C1041      C1042   1.403       .  A
C1041      C1046   1.408       .  A
C1042      C1043   1.406       .  A
C1042      H1051   1.082       .  S
C1043      C1044   1.408       .  A
C1043      H1052   1.083       .  S
C1044      C1050   1.413       .  A
C1044      C1045   1.412       .  A
C1045      C1047   1.401       .  A
C1045      C1046   1.404       .  A
C1046      H1053   1.085       .  S
C1047      C1048   1.397       .  A
C1047      H1054   1.084       .  S
C1048      C1049   1.407       .  A
C1048      H1055   1.082       .  S
C1049      C1050   1.414       .  A
C1050      H1056   1.083       .  S
C1057      C1058   1.404       .  A
C1057      C1062   1.409       .  A
C1058      C1059   1.398       .  A
C1058      H1067   1.081       .  S
C1059      C1060   1.404       .  A
C1059      H1068   1.084       .  S
C1060      C1066   1.403       .  A
C1060      C1061   1.412       .  A
C1061      C1063   1.405       .  A
C1061      C1062   1.403       .  A
C1062      H1069   1.084       .  S
C1063      C1064   1.399       .  A
C1063      H1070   1.084       .  S
C1064      C1065   1.402       .  A
C1064      H1071   1.083       .  S
C1065      C1066   1.406       .  A
C1066      H1072   1.084       .  S
C1073      C1074   1.408       .  A
C1073      C1078   1.413       .  A
C1074      C1075   1.404       .  A
C1074      H1083   1.080       .  S
C1075      C1076   1.405       .  A
C1075      H1084   1.083       .  S
C1076      C1082   1.411       .  A
C1076      C1077   1.410       .  A
C1077      C1079   1.404       .  A
C1077      C1078   1.406       .  A
C1078      H1085   1.081       .  S
C1079      C1080   1.399       .  A
C1079      H1086   1.083       .  S
C1080      C1081   1.404       .  A
C1080      H1087   1.082       .  S
C1081      C1082   1.412       .  A
C1082      H1088   1.083       .  S
C1089      C1090   1.402       .  A
C1089      C1094   1.409       .  A
C1090      C1091   1.399       .  A
C1090      H1099   1.083       .  S
C1091      C1092   1.404       .  A
C1091      H1100   1.083       .  S
C1092      C1098   1.403       .  A
C1092      C1093   1.412       .  A
C1093      C1095   1.405       .  A
C1093      C1094   1.405       .  A
C1094      H1101   1.084       .  S
C1095      C1096   1.400       .  A
C1095      H1102   1.083       .  S
C1096      C1097   1.405       .  A
C1096      H1103   1.081       .  S
C1097      C1098   1.409       .  A
C1098      H1104   1.084       .  S
C1105      C1106   1.401       .  A
C1105      C1110   1.405       .  A
C1106      C1107   1.401       .  A
C1106      H1115   1.083       .  S
C1107      C1108   1.406       .  A
C1107      H1116   1.083       .  S
C1108      C1114   1.405       .  A
C1108      C1109   1.413       .  A
C1109      C1111   1.405       .  A
C1109      C1110   1.404       .  A
C1110      H1117   1.085       .  S
C1111      C1112   1.400       .  A
C1111      H1118   1.083       .  S
C1112      C1113   1.401       .  A
C1112      H1119   1.083       .  S
C1113      C1114   1.406       .  A
C1114      H1120   1.084       .  S
C1121      C1122   1.403       .  A
C1121      C1126   1.412       .  A
C1122      C1123   1.397       .  A
C1122      H1131   1.081       .  S
C1123      C1124   1.403       .  A
C1123      H1132   1.083       .  S
C1124      C1130   1.404       .  A
C1124      C1125   1.410       .  A
C1125      C1127   1.407       .  A
C1125      C1126   1.413       .  A
C1126      H1133   1.083       .  S
C1127      C1128   1.407       .  A
C1127      H1134   1.083       .  S
C1128      C1129   1.408       .  A
C1128      H1135   1.081       .  S
C1129      C1130   1.413       .  A
C1130      H1136   1.081       .  S
C1137      C1138   1.408       .  A
C1137      C1142   1.410       .  A
C1138      C1139   1.408       .  A
C1138      H1147   1.081       .  S
C1139      C1140   1.408       .  A
C1139      H1148   1.084       .  S
C1140      C1146   1.414       .  A
C1140      C1141   1.412       .  A
C1141      C1143   1.402       .  A
C1141      C1142   1.402       .  A
C1142      H1149   1.084       .  S
C1143      C1144   1.395       .  A
C1143      H1150   1.084       .  S
C1144      C1145   1.402       .  A
C1144      H1151   1.083       .  S
C1145      C1146   1.411       .  A
C1146      H1152   1.084       .  S
C1153      C1154   1.407       .  A
C1153      C1158   1.415       .  A
C1154      C1155   1.396       .  A
C1154      H1163   1.081       .  S
C1155      C1156   1.400       .  A
C1155      H1164   1.084       .  S
C1156      C1162   1.404       .  A
C1156      C1157   1.412       .  A
C1157      C1159   1.408       .  A
C1157      C1158   1.413       .  A
C1158      H1165   1.082       .  S
C1159      C1160   1.406       .  A
C1159      H1166   1.083       .  S
C1160      C1161   1.403       .  A
C1160      H1167   1.083       .  S
C1161      C1162   1.406       .  A
C1162      H1168   1.085       .  S
C1169      C1170   1.406       .  A
C1169      C1174   1.406       .  A
C1170      C1171   1.402       .  A
C1170      H1179   1.083       .  S
C1171      C1172   1.404       .  A
C1171      H1180   1.084       .  S
C1172      C1178   1.411       .  A
C1172      C1173   1.415       .  A
C1173      C1175   1.402       .  A
C1173      C1174   1.405       .  A
C1174      H1181   1.085       .  S
C1175      C1176   1.397       .  A
C1175      H1182   1.084       .  S
C1176      C1177   1.403       .  A
C1176      H1183   1.083       .  S
C1177      C1178   1.406       .  A
C1178      H1184   1.084       .  S
C1185      C1186   1.409       .  A
C1185      C1190   1.415       .  A
C1186      C1187   1.404       .  A
C1186      H1195   1.078       .  S
C1187      C1188   1.405       .  A
C1187      H1196   1.082       .  S
C1188      C1194   1.408       .  A
C1188      C1189   1.408       .  A
C1189      C1191   1.404       .  A
C1189      C1190   1.401       .  A
C1190      H1197   1.079       .  S
C1191      C1192   1.396       .  A
C1191      H1198   1.082       .  S
C1192      C1193   1.402       .  A
C1192      H1199   1.083       .  S
C1193      C1194   1.412       .  A
C1194      H1200   1.082       .  S
C1201      C1202   1.405       .  A
C1201      C1206   1.414       .  A
C1202      C1203   1.399       .  A
C1202      H1211   1.083       .  S
C1203      C1204   1.403       .  A
C1203      H1212   1.083       .  S
C1204      C1210   1.408       .  A
C1204      C1205   1.413       .  A
C1205      C1207   1.409       .  A
C1205      C1206   1.416       .  A
C1206      H1213   1.083       .  S
C1207      C1208   1.408       .  A
C1207      H1214   1.083       .  S
C1208      C1209   1.404       .  A
C1208      H1215   1.083       .  S
C1209      C1210   1.409       .  A
C1210      H1216   1.085       .  S
C1217      C1218   1.404       .  A
C1217      C1222   1.400       .  A
C1218      C1219   1.400       .  A
C1218      H1227   1.083       .  S
C1219      C1220   1.402       .  A
C1219      H1228   1.084       .  S
C1220      C1226   1.407       .  A
C1220      C1221   1.417       .  A
C1221      C1223   1.400       .  A
C1221      C1222   1.402       .  A
C1222      H1229   1.085       .  S
C1223      C1224   1.393       .  A
C1223      H1230   1.084       .  S
C1224      C1225   1.403       .  A
C1224      H1231   1.084       .  S
C1225      C1226   1.402       .  A
C1226      H1232   1.084       .  S
C1233      C1234   1.403       .  A
C1233      C1238   1.415       .  A
C1234      C1235   1.405       .  A
C1234      H1243   1.081       .  S
C1235      C1236   1.408       .  A
C1235      H1244   1.083       .  S
C1236      C1242   1.409       .  A
C1236      C1237   1.410       .  A
C1237      C1239   1.408       .  A
C1237      C1238   1.408       .  A
C1238      H1245   1.083       .  S
C1239      C1240   1.404       .  A
C1239      H1246   1.083       .  S
C1240      C1241   1.402       .  A
C1240      H1247   1.083       .  S
C1241      C1242   1.414       .  A
C1242      H1248   1.083       .  S
C1249      C1250   1.406       .  A
C1249      C1254   1.408       .  A
C1250      C1251   1.397       .  A
C1250      H1259   1.082       .  S
C1251      C1252   1.403       .  A
C1251      H1260   1.083       .  S
C1252      C1258   1.400       .  A
C1252      C1253   1.409       .  A
C1253      C1255   1.401       .  A
C1253      C1254   1.400       .  A
C1254      H1261   1.083       .  S
C1255      C1256   1.397       .  A
C1255      H1262   1.082       .  S
C1256      C1257   1.405       .  A
C1256      H1263   1.074       .  S
C1257      C1258   1.412       .  A
C1258      H1264   1.083       .  S
C1265      C1266   1.405       .  A
C1265      C1270   1.406       .  A
C1266      C1267   1.401       .  A
C1266      H1275   1.084       .  S
C1267      C1268   1.403       .  A
C1267      H1276   1.083       .  S
C1268      C1274   1.411       .  A
C1268      C1269   1.414       .  A
C1269      C1271   1.402       .  A
C1269      C1270   1.407       .  A
C1270      H1277   1.083       .  S
C1271      C1272   1.398       .  A
C1271      H1278   1.083       .  S
C1272      C1273   1.404       .  A
C1272      H1279   1.084       .  S
C1273      C1274   1.406       .  A
C1274      H1280   1.084       .  S
C1281      C1282   1.408       .  A
C1281      C1286   1.416       .  A
C1282      C1283   1.404       .  A
C1282      H1291   1.080       .  S
C1283      C1284   1.405       .  A
C1283      H1292   1.081       .  S
C1284      C1290   1.407       .  A
C1284      C1285   1.409       .  A
C1285      C1287   1.407       .  A
C1285      C1286   1.404       .  A
C1286      H1293   1.069       .  S
C1287      C1288   1.400       .  A
C1287      H1294   1.081       .  S
C1288      C1289   1.399       .  A
C1288      H1295   1.083       .  S
C1289      C1290   1.408       .  A
C1290      H1296   1.082       .  S
C1297      C1298   1.402       .  A
C1297      C1302   1.408       .  A
C1298      C1299   1.406       .  A
C1298      H1307   1.083       .  S
C1299      C1300   1.408       .  A
C1299      H1308   1.083       .  S
C1300      C1306   1.414       .  A
C1300      C1301   1.412       .  A
C1301      C1303   1.402       .  A
C1301      C1302   1.406       .  A
C1302      H1309   1.085       .  S
C1303      C1304   1.399       .  A
C1303      H1310   1.084       .  S
C1304      C1305   1.407       .  A
C1304      H1311   1.082       .  S
C1305      C1306   1.414       .  A
C1306      H1312   1.083       .  S
C1313      C1314   1.404       .  A
C1313      C1318   1.406       .  A
C1314      C1315   1.407       .  A
C1314      H1323   1.083       .  S
C1315      C1316   1.409       .  A
C1315      H1324   1.083       .  S
C1316      C1322   1.415       .  A
C1316      C1317   1.413       .  A
C1317      C1319   1.401       .  A
C1317      C1318   1.405       .  A
C1318      H1325   1.085       .  S
C1319      C1320   1.397       .  A
C1319      H1326   1.084       .  S
C1320      C1321   1.406       .  A
C1320      H1327   1.082       .  S
C1321      C1322   1.414       .  A
C1322      H1328   1.083       .  S
C1329      C1330   1.402       .  A
C1329      C1334   1.412       .  A
C1330      C1331   1.394       .  A
C1330      H1339   1.084       .  S
C1331      C1332   1.401       .  A
C1331      H1340   1.084       .  S
C1332      C1338   1.402       .  A
C1332      C1333   1.413       .  A
C1333      C1335   1.409       .  A
C1333      C1334   1.417       .  A
C1334      H1341   1.084       .  S
C1335      C1336   1.409       .  A
C1335      H1342   1.083       .  S
C1336      C1337   1.406       .  A
C1336      H1343   1.083       .  S
C1337      C1338   1.406       .  A
C1338      H1344   1.085       .  S
C1345      C1346   1.405       .  A
C1345      C1350   1.408       .  A
C1346      C1347   1.401       .  A
C1346      H1355   1.083       .  S
C1347      C1348   1.404       .  A
C1347      H1356   1.084       .  S
C1348      C1354   1.410       .  A
C1348      C1349   1.414       .  A
C1349      C1351   1.406       .  A
C1349      C1350   1.412       .  A
C1350      H1357   1.084       .  S
C1351      C1352   1.403       .  A
C1351      H1358   1.083       .  S
C1352      C1353   1.404       .  A
C1352      H1359   1.083       .  S
C1353      C1354   1.409       .  A
C1354      H1360   1.084       .  S
C1361      C1362   1.405       .  A
C1361      C1366   1.405       .  A
C1362      C1363   1.401       .  A
C1362      H1371   1.082       .  S
C1363      C1364   1.406       .  A
C1363      H1372   1.084       .  S
C1364      C1370   1.404       .  A
C1364      C1365   1.412       .  A
C1365      C1367   1.402       .  A
C1365      C1366   1.398       .  A
C1366      H1373   1.085       .  S
C1367      C1368   1.395       .  A
C1367      H1374   1.084       .  S
C1368      C1369   1.401       .  A
C1368      H1375   1.083       .  S
C1369      C1370   1.407       .  A
C1370      H1376   1.084       .  S
C1377      C1378   1.403       .  A
C1377      C1382   1.411       .  A
C1378      C1379   1.398       .  A
C1378      H1387   1.082       .  S
C1379      C1380   1.404       .  A
C1379      H1388   1.083       .  S
C1380      C1386   1.405       .  A
C1380      C1381   1.410       .  A
C1381      C1383   1.405       .  A
C1381      C1382   1.411       .  A
C1382      H1389   1.083       .  S
C1383      C1384   1.405       .  A
C1383      H1390   1.083       .  S
C1384      C1385   1.409       .  A
C1384      H1391   1.078       .  S
C1385      C1386   1.416       .  A
C1386      H1392   1.080       .  S
C1393      C1394   1.400       .  A
C1393      C1398   1.407       .  A
C1394      C1395   1.398       .  A
C1394      H1403   1.083       .  S
C1395      C1396   1.404       .  A
C1395      H1404   1.083       .  S
C1396      C1402   1.403       .  A
C1396      C1397   1.414       .  A
C1397      C1399   1.406       .  A
C1397      C1398   1.406       .  A
C1398      H1405   1.085       .  S
C1399      C1400   1.402       .  A
C1399      H1406   1.083       .  S
C1400      C1401   1.401       .  A
C1400      H1407   1.083       .  S
C1401      C1402   1.404       .  A
C1402      H1408   1.085       .  S
C1409      C1410   1.401       .  A
C1409      C1414   1.407       .  A
C1410      C1411   1.398       .  A
C1410      H1419   1.083       .  S
C1411      C1412   1.405       .  A
C1411      H1420   1.084       .  S
C1412      C1418   1.401       .  A
C1412      C1413   1.411       .  A
C1413      C1415   1.405       .  A
C1413      C1414   1.403       .  A
C1414      H1421   1.084       .  S
C1415      C1416   1.401       .  A
C1415      H1422   1.084       .  S
C1416      C1417   1.404       .  A
C1416      H1423   1.082       .  S
C1417      C1418   1.409       .  A
C1418      H1424   1.084       .  S
C1425      C1426   1.403       .  A
C1425      C1430   1.413       .  A
C1426      C1427   1.398       .  A
C1426      H1435   1.082       .  S
C1427      C1428   1.404       .  A
C1427      H1436   1.083       .  S
C1428      C1434   1.406       .  A
C1428      C1429   1.410       .  A
C1429      C1431   1.406       .  A
C1429      C1430   1.413       .  A
C1430      H1437   1.083       .  S
C1431      C1432   1.406       .  A
C1431      H1438   1.083       .  S
C1432      C1433   1.409       .  A
C1432      H1439   1.080       .  S
C1433      C1434   1.414       .  A
C1434      H1440   1.080       .  S
C1441      C1442   1.403       .  A
C1441      C1446   1.412       .  A
C1442      C1443   1.398       .  A
C1442      H1451   1.079       .  S
C1443      C1444   1.403       .  A
C1443      H1452   1.083       .  S
C1444      C1450   1.405       .  A
C1444      C1445   1.412       .  A
C1445      C1447   1.407       .  A
C1445      C1446   1.411       .  A
C1446      H1453   1.083       .  S
C1447      C1448   1.405       .  A
C1447      H1454   1.083       .  S
C1448      C1449   1.404       .  A
C1448      H1455   1.083       .  S
C1449      C1450   1.409       .  A
C1450      H1456   1.083       .  S
C1457      C1458   1.401       .  A
C1457      C1462   1.406       .  A
C1458      C1459   1.390       .  A
C1458      H1467   1.084       .  S
C1459      C1460   1.399       .  A
C1459      H1468   1.084       .  S
C1460      C1466   1.396       .  A
C1460      C1461   1.415       .  A
C1461      C1463   1.407       .  A
C1461      C1462   1.409       .  A
C1462      H1469   1.084       .  S
C1463      C1464   1.403       .  A
C1463      H1470   1.083       .  S
C1464      C1465   1.404       .  A
C1464      H1471   1.083       .  S
C1465      C1466   1.400       .  A
C1466      H1472   1.085       .  S
C1473      C1474   1.405       .  A
C1473      C1478   1.410       .  A
C1474      C1475   1.400       .  A
C1474      H1483   1.083       .  S
C1475      C1476   1.403       .  A
C1475      H1484   1.083       .  S
C1476      C1482   1.409       .  A
C1476      C1477   1.414       .  A
C1477      C1479   1.405       .  A
C1477      C1478   1.410       .  A
C1478      H1485   1.084       .  S
C1479      C1480   1.401       .  A
C1479      H1486   1.083       .  S
C1480      C1481   1.404       .  A
C1480      H1487   1.083       .  S
C1481      C1482   1.406       .  A
C1482      H1488   1.084       .  S
C1489      C1490   1.407       .  A
C1489      C1494   1.413       .  A
C1490      C1491   1.402       .  A
C1490      H1499   1.075       .  S
C1491      C1492   1.403       .  A
C1491      H1500   1.084       .  S
C1492      C1498   1.411       .  A
C1492      C1493   1.412       .  A
C1493      C1495   1.404       .  A
C1493      C1494   1.410       .  A
C1494      H1501   1.084       .  S
C1495      C1496   1.401       .  A
C1495      H1502   1.083       .  S
C1496      C1497   1.404       .  A
C1496      H1503   1.080       .  S
C1497      C1498   1.409       .  A
C1498      H1504   1.084       .  S
C1505      C1506   1.408       .  A
C1505      C1510   1.404       .  A
C1506      C1507   1.402       .  A
C1506      H1515   1.083       .  S
C1507      C1508   1.403       .  A
C1507      H1516   1.084       .  S
C1508      C1514   1.410       .  A
C1508      C1509   1.412       .  A
C1509      C1511   1.398       .  A
C1509      C1510   1.406       .  A
C1510      H1517   1.083       .  S
C1511      C1512   1.396       .  A
C1511      H1518   1.083       .  S
C1512      C1513   1.410       .  A
C1512      H1519   1.082       .  S
C1513      C1514   1.410       .  A
C1514      H1520   1.078       .  S
C1521      C1522   1.403       .  A
C1521      C1526   1.398       .  A
C1522      C1523   1.402       .  A
C1522      H1531   1.083       .  S
C1523      C1524   1.405       .  A
C1523      H1532   1.083       .  S
C1524      C1530   1.409       .  A
C1524      C1525   1.416       .  A
C1525      C1527   1.398       .  A
C1525      C1526   1.399       .  A
C1526      H1533   1.085       .  S
C1527      C1528   1.391       .  A
C1527      H1534   1.084       .  S
C1528      C1529   1.403       .  A
C1528      H1535   1.084       .  S
C1529      C1530   1.406       .  A
C1530      H1536   1.084       .  S
C1537      C1538   1.410       .  A
C1537      C1542   1.415       .  A
C1538      C1539   1.402       .  A
C1538      H1547   1.078       .  S
C1539      C1540   1.403       .  A
C1539      H1548   1.084       .  S
C1540      C1546   1.408       .  A
C1540      C1541   1.410       .  A
C1541      C1543   1.406       .  A
C1541      C1542   1.407       .  A
C1542      H1549   1.080       .  S
C1543      C1544   1.402       .  A
C1543      H1550   1.084       .  S
C1544      C1545   1.403       .  A
C1544      H1551   1.082       .  S
C1545      C1546   1.408       .  A
C1546      H1552   1.084       .  S
C1553      C1554   1.403       .  A
C1553      C1558   1.406       .  A
C1554      C1555   1.399       .  A
C1554      H1563   1.083       .  S
C1555      C1556   1.403       .  A
C1555      H1564   1.084       .  S
C1556      C1562   1.405       .  A
C1556      C1557   1.414       .  A
C1557      C1559   1.403       .  A
C1557      C1558   1.407       .  A
C1558      H1565   1.084       .  S
C1559      C1560   1.400       .  A
C1559      H1566   1.084       .  S
C1560      C1561   1.404       .  A
C1560      H1567   1.082       .  S
C1561      C1562   1.407       .  A
C1562      H1568   1.085       .  S
C1569      C1570   1.404       .  A
C1569      C1574   1.414       .  A
C1570      C1571   1.398       .  A
C1570      H1579   1.083       .  S
C1571      C1572   1.403       .  A
C1571      H1580   1.084       .  S
C1572      C1578   1.403       .  A
C1572      C1573   1.412       .  A
C1573      C1575   1.409       .  A
C1573      C1574   1.412       .  A
C1574      H1581   1.084       .  S
C1575      C1576   1.407       .  A
C1575      H1582   1.083       .  S
C1576      C1577   1.403       .  A
C1576      H1583   1.083       .  S
C1577      C1578   1.408       .  A
C1578      H1584   1.085       .  S
C1585      C1586   1.404       .  A
C1585      C1590   1.408       .  A
C1586      C1587   1.400       .  A
C1586      H1595   1.083       .  S
C1587      C1588   1.403       .  A
C1587      H1596   1.084       .  S
C1588      C1594   1.408       .  A
C1588      C1589   1.414       .  A
C1589      C1591   1.403       .  A
C1589      C1590   1.408       .  A
C1590      H1597   1.084       .  S
C1591      C1592   1.400       .  A
C1591      H1598   1.084       .  S
C1592      C1593   1.405       .  A
C1592      H1599   1.083       .  S
C1593      C1594   1.407       .  A
C1594      H1600   1.085       .  S
C1601      C1602   1.405       .  A
C1601      C1606   1.416       .  A
C1602      C1603   1.399       .  A
C1602      H1611   1.082       .  S
C1603      C1604   1.403       .  A
C1603      H1612   1.084       .  S
C1604      C1610   1.405       .  A
C1604      C1605   1.411       .  A
C1605      C1607   1.410       .  A
C1605      C1606   1.415       .  A
C1606      H1613   1.083       .  S
C1607      C1608   1.408       .  A
C1607      H1614   1.083       .  S
C1608      C1609   1.403       .  A
C1608      H1615   1.083       .  S
C1609      C1610   1.409       .  A
C1610      H1616   1.085       .  S
C1617      C1618   1.407       .  A
C1617      C1622   1.414       .  A
C1618      C1619   1.399       .  A
C1618      H1627   1.081       .  S
C1619      C1620   1.402       .  A
C1619      H1628   1.084       .  S
C1620      C1626   1.405       .  A
C1620      C1621   1.411       .  A
C1621      C1623   1.408       .  A
C1621      C1622   1.410       .  A
C1622      H1629   1.082       .  S
C1623      C1624   1.404       .  A
C1623      H1630   1.083       .  S
C1624      C1625   1.401       .  A
C1624      H1631   1.083       .  S
C1625      C1626   1.408       .  A
C1626      H1632   1.085       .  S
C1633      C1634   1.406       .  A
C1633      C1638   1.411       .  A
C1634      C1635   1.401       .  A
C1634      H1643   1.080       .  S
C1635      C1636   1.404       .  A
C1635      H1644   1.083       .  S
C1636      C1642   1.409       .  A
C1636      C1637   1.413       .  A
C1637      C1639   1.405       .  A
C1637      C1638   1.409       .  A
C1638      H1645   1.084       .  S
C1639      C1640   1.402       .  A
C1639      H1646   1.083       .  S
C1640      C1641   1.403       .  A
C1640      H1647   1.083       .  S
C1641      C1642   1.407       .  A
C1642      H1648   1.084       .  S
C1649      C1650   1.401       .  A
C1649      C1654   1.405       .  A
C1650      C1651   1.402       .  A
C1650      H1659   1.083       .  S
C1651      C1652   1.407       .  A
C1651      H1660   1.084       .  S
C1652      C1658   1.407       .  A
C1652      C1653   1.412       .  A
C1653      C1655   1.402       .  A
C1653      C1654   1.402       .  A
C1654      H1661   1.085       .  S
C1655      C1656   1.398       .  A
C1655      H1662   1.084       .  S
C1656      C1657   1.404       .  A
C1656      H1663   1.082       .  S
C1657      C1658   1.412       .  A
C1658      H1664   1.083       .  S
C1665      C1666   1.405       .  A
C1665      C1670   1.403       .  A
C1666      C1667   1.394       .  A
C1666      H1675   1.083       .  S
C1667      C1668   1.399       .  A
C1667      H1676   1.084       .  S
C1668      C1674   1.401       .  A
C1668      C1669   1.416       .  A
C1669      C1671   1.401       .  A
C1669      C1670   1.403       .  A
C1670      H1677   1.083       .  S
C1671      C1672   1.397       .  A
C1671      H1678   1.084       .  S
C1672      C1673   1.405       .  A
C1672      H1679   1.083       .  S
C1673      C1674   1.401       .  A
C1674      H1680   1.084       .  S
C1681      C1682   1.404       .  A
C1681      C1686   1.413       .  A
C1682      C1683   1.399       .  A
C1682      H1691   1.082       .  S
C1683      C1684   1.403       .  A
C1683      H1692   1.083       .  S
C1684      C1690   1.405       .  A
C1684      C1685   1.410       .  A
C1685      C1687   1.405       .  A
C1685      C1686   1.409       .  A
C1686      H1693   1.083       .  S
C1687      C1688   1.403       .  A
C1687      H1694   1.083       .  S
C1688      C1689   1.408       .  A
C1688      H1695   1.080       .  S
C1689      C1690   1.413       .  A
C1690      H1696   1.081       .  S
C1697      C1698   1.405       .  A
C1697      C1702   1.408       .  A
C1698      C1699   1.411       .  A
C1698      H1707   1.082       .  S
C1699      C1700   1.411       .  A
C1699      H1708   1.083       .  S
C1700      C1706   1.416       .  A
C1700      C1701   1.411       .  A
C1701      C1703   1.400       .  A
C1701      C1702   1.400       .  A
C1702      H1709   1.085       .  S
C1703      C1704   1.393       .  A
C1703      H1710   1.084       .  S
C1704      C1705   1.405       .  A
C1704      H1711   1.082       .  S
C1705      C1706   1.415       .  A
C1706      H1712   1.084       .  S
C1713      C1714   1.407       .  A
C1713      C1718   1.404       .  A
C1714      C1715   1.404       .  A
C1714      H1723   1.082       .  S
C1715      C1716   1.405       .  A
C1715      H1724   1.083       .  S
C1716      C1722   1.411       .  A
C1716      C1717   1.415       .  A
C1717      C1719   1.400       .  A
C1717      C1718   1.400       .  A
C1718      H1725   1.084       .  S
C1719      C1720   1.392       .  A
C1719      H1726   1.084       .  S
C1720      C1721   1.402       .  A
C1720      H1727   1.084       .  S
C1721      C1722   1.406       .  A
C1722      H1728   1.084       .  S
C1729      C1730   1.405       .  A
C1729      C1734   1.402       .  A
C1730      C1731   1.404       .  A
C1730      H1739   1.083       .  S
C1731      C1732   1.406       .  A
C1731      H1740   1.083       .  S
C1732      C1738   1.414       .  A
C1732      C1733   1.416       .  A
C1733      C1735   1.399       .  A
C1733      C1734   1.404       .  A
C1734      H1741   1.085       .  S
C1735      C1736   1.394       .  A
C1735      H1742   1.084       .  S
C1736      C1737   1.404       .  A
C1736      H1743   1.084       .  S
C1737      C1738   1.408       .  A
C1738      H1744   1.084       .  S
C1745      C1746   1.403       .  A
C1745      C1750   1.412       .  A
C1746      C1747   1.403       .  A
C1746      H1755   1.082       .  S
C1747      C1748   1.406       .  A
C1747      H1756   1.084       .  S
C1748      C1754   1.406       .  A
C1748      C1749   1.411       .  A
C1749      C1751   1.407       .  A
C1749      C1750   1.406       .  A
C1750      H1757   1.084       .  S
C1751      C1752   1.402       .  A
C1751      H1758   1.084       .  S
C1752      C1753   1.403       .  A
C1752      H1759   1.082       .  S
C1753      C1754   1.412       .  A
C1754      H1760   1.084       .  S
C1761      C1762   1.403       .  A
C1761      C1766   1.406       .  A
C1762      C1763   1.405       .  A
C1762      H1771   1.082       .  S
C1763      C1764   1.407       .  A
C1763      H1772   1.083       .  S
C1764      C1770   1.410       .  A
C1764      C1765   1.412       .  A
C1765      C1767   1.401       .  A
C1765      C1766   1.401       .  A
C1766      H1773   1.085       .  S
C1767      C1768   1.395       .  A
C1767      H1774   1.083       .  S
C1768      C1769   1.404       .  A
C1768      H1775   1.083       .  S
C1769      C1770   1.411       .  A
C1770      H1776   1.083       .  S
C1777      C1778   1.405       .  A
C1777      C1782   1.413       .  A
C1778      C1779   1.399       .  A
C1778      H1787   1.082       .  S
C1779      C1780   1.402       .  A
C1779      H1788   1.084       .  S
C1780      C1786   1.406       .  A
C1780      C1781   1.413       .  A
C1781      C1783   1.407       .  A
C1781      C1782   1.410       .  A
C1782      H1789   1.083       .  S
C1783      C1784   1.403       .  A
C1783      H1790   1.084       .  S
C1784      C1785   1.402       .  A
C1784      H1791   1.083       .  S
C1785      C1786   1.406       .  A
C1786      H1792   1.085       .  S
C1793      C1794   1.405       .  A
C1793      C1798   1.414       .  A
C1794      C1795   1.394       .  A
C1794      H1803   1.083       .  S
C1795      C1796   1.400       .  A
C1795      H1804   1.084       .  S
C1796      C1802   1.401       .  A
C1796      C1797   1.412       .  A
C1797      C1799   1.410       .  A
C1797      C1798   1.415       .  A
C1798      H1805   1.084       .  S
C1799      C1800   1.409       .  A
C1799      H1806   1.083       .  S
C1800      C1801   1.404       .  A
C1800      H1807   1.083       .  S
C1801      C1802   1.406       .  A
C1802      H1808   1.085       .  S
C1809      C1810   1.405       .  A
C1809      C1814   1.412       .  A
C1810      C1811   1.404       .  A
C1810      H1819   1.081       .  S
C1811      C1812   1.407       .  A
C1811      H1820   1.083       .  S
C1812      C1818   1.408       .  A
C1812      C1813   1.410       .  A
C1813      C1815   1.404       .  A
C1813      C1814   1.403       .  A
C1814      H1821   1.082       .  S
C1815      C1816   1.398       .  A
C1815      H1822   1.084       .  S
C1816      C1817   1.405       .  A
C1816      H1823   1.082       .  S
C1817      C1818   1.414       .  A
C1818      H1824   1.083       .  S
C1825      C1826   1.403       .  A
C1825      C1830   1.407       .  A
C1826      C1827   1.403       .  A
C1826      H1835   1.083       .  S
C1827      C1828   1.406       .  A
C1827      H1836   1.084       .  S
C1828      C1834   1.410       .  A
C1828      C1829   1.413       .  A
C1829      C1831   1.404       .  A
C1829      C1830   1.407       .  A
C1830      H1837   1.085       .  S
C1831      C1832   1.400       .  A
C1831      H1838   1.084       .  S
C1832      C1833   1.403       .  A
C1832      H1839   1.083       .  S
C1833      C1834   1.410       .  A
C1834      H1840   1.084       .  S
C1841      C1842   1.403       .  A
C1841      C1846   1.400       .  A
C1842      C1843   1.400       .  A
C1842      H1851   1.083       .  S
C1843      C1844   1.403       .  A
C1843      H1852   1.084       .  S
C1844      C1850   1.408       .  A
C1844      C1845   1.417       .  A
C1845      C1847   1.400       .  A
C1845      C1846   1.403       .  A
C1846      H1853   1.085       .  S
C1847      C1848   1.395       .  A
C1847      H1854   1.084       .  S
C1848      C1849   1.403       .  A
C1848      H1855   1.084       .  S
C1849      C1850   1.403       .  A
C1850      H1856   1.084       .  S
C1857      C1858   1.404       .  A
C1857      C1862   1.414       .  A
C1858      C1859   1.406       .  A
C1858      H1867   1.082       .  S
C1859      C1860   1.409       .  A
C1859      H1868   1.083       .  S
C1860      C1866   1.410       .  A
C1860      C1861   1.410       .  A
C1861      C1863   1.407       .  A
C1861      C1862   1.406       .  A
C1862      H1869   1.083       .  S
C1863      C1864   1.402       .  A
C1863      H1870   1.084       .  S
C1864      C1865   1.402       .  A
C1864      H1871   1.082       .  S
C1865      C1866   1.414       .  A
C1866      H1872   1.084       .  S
C1873      C1874   1.402       .  A
C1873      C1878   1.406       .  A
C1874      C1875   1.393       .  A
C1874      H1883   1.084       .  S
C1875      C1876   1.401       .  A
C1875      H1884   1.084       .  S
C1876      C1882   1.401       .  A
C1876      C1877   1.415       .  A
C1877      C1879   1.406       .  A
C1877      C1878   1.411       .  A
C1878      H1885   1.084       .  S
C1879      C1880   1.405       .  A
C1879      H1886   1.083       .  S
C1880      C1881   1.406       .  A
C1880      H1887   1.083       .  S
C1881      C1882   1.405       .  A
C1882      H1888   1.085       .  S
C1889      C1890   1.404       .  A
C1889      C1894   1.406       .  A
C1890      C1891   1.398       .  A
C1890      H1899   1.081       .  S
C1891      C1892   1.403       .  A
C1891      H1900   1.084       .  S
C1892      C1898   1.403       .  A
C1892      C1893   1.413       .  A
C1893      C1895   1.403       .  A
C1893      C1894   1.400       .  A
C1894      H1901   1.084       .  S
C1895      C1896   1.396       .  A
C1895      H1902   1.084       .  S
C1896      C1897   1.401       .  A
C1896      H1903   1.083       .  S
C1897      C1898   1.404       .  A
C1898      H1904   1.084       .  S
C1905      C1906   1.404       .  A
C1905      C1910   1.407       .  A
C1906      C1907   1.401       .  A
C1906      H1915   1.083       .  S
C1907      C1908   1.405       .  A
C1907      H1916   1.083       .  S
C1908      C1914   1.409       .  A
C1908      C1909   1.414       .  A
C1909      C1911   1.404       .  A
C1909      C1910   1.410       .  A
C1910      H1917   1.084       .  S
C1911      C1912   1.401       .  A
C1911      H1918   1.083       .  S
C1912      C1913   1.405       .  A
C1912      H1919   1.081       .  S
C1913      C1914   1.411       .  A
C1914      H1920   1.084       .  S
C1921      C1922   1.405       .  A
C1921      C1926   1.406       .  A
C1922      C1923   1.402       .  A
C1922      H1931   1.083       .  S
C1923      C1924   1.404       .  A
C1923      H1932   1.084       .  S
C1924      C1930   1.411       .  A
C1924      C1925   1.415       .  A
C1925      C1927   1.402       .  A
C1925      C1926   1.407       .  A
C1926      H1933   1.085       .  S
C1927      C1928   1.399       .  A
C1927      H1934   1.084       .  S
C1928      C1929   1.404       .  A
C1928      H1935   1.083       .  S
C1929      C1930   1.407       .  A
C1930      H1936   1.084       .  S
C1937      C1938   1.402       .  A
C1937      C1942   1.407       .  A
C1938      C1939   1.405       .  A
C1938      H1947   1.082       .  S
C1939      C1940   1.408       .  A
C1939      H1948   1.083       .  S
C1940      C1946   1.411       .  A
C1940      C1941   1.412       .  A
C1941      C1943   1.402       .  A
C1941      C1942   1.403       .  A
C1942      H1949   1.085       .  S
C1943      C1944   1.397       .  A
C1943      H1950   1.084       .  S
C1944      C1945   1.406       .  A
C1944      H1951   1.082       .  S
C1945      C1946   1.413       .  A
C1946      H1952   1.083       .  S
C1953      C1954   1.402       .  A
C1953      C1958   1.406       .  A
C1954      C1955   1.406       .  A
C1954      H1963   1.083       .  S
C1955      C1956   1.409       .  A
C1955      H1964   1.083       .  S
C1956      C1962   1.411       .  A
C1956      C1957   1.412       .  A
C1957      C1959   1.402       .  A
C1957      C1958   1.403       .  A
C1958      H1965   1.085       .  S
C1959      C1960   1.397       .  A
C1959      H1966   1.084       .  S
C1960      C1961   1.405       .  A
C1960      H1967   1.082       .  S
C1961      C1962   1.413       .  A
C1962      H1968   1.083       .  S
C1969      C1970   1.406       .  A
C1969      C1974   1.412       .  A
C1970      C1971   1.400       .  A
C1970      H1979   1.082       .  S
C1971      C1972   1.403       .  A
C1971      H1980   1.083       .  S
C1972      C1978   1.407       .  A
C1972      C1973   1.413       .  A
C1973      C1975   1.406       .  A
C1973      C1974   1.409       .  A
C1974      H1981   1.083       .  S
C1975      C1976   1.402       .  A
C1975      H1982   1.083       .  S
C1976      C1977   1.403       .  A
C1976      H1983   1.083       .  S
C1977      C1978   1.407       .  A
C1978      H1984   1.085       .  S
C1985      C1986   1.403       .  A
C1985      C1990   1.414       .  A
C1986      C1987   1.393       .  A
C1986      H1995   1.083       .  S
C1987      C1988   1.400       .  A
C1987      H1996   1.084       .  S
C1988      C1994   1.398       .  A
C1988      C1989   1.412       .  A
C1989      C1991   1.410       .  A
C1989      C1990   1.413       .  A
C1990      H1997   1.084       .  S
C1991      C1992   1.408       .  A
C1991      H1998   1.083       .  S
C1992      C1993   1.403       .  A
C1992      H1999   1.083       .  S
C1993      C1994   1.405       .  A
C1994      H2000   1.085       .  S
C2001      C2002   1.406       .  A
C2001      C2006   1.406       .  A
C2002      C2003   1.396       .  A
C2002      H2011   1.083       .  S
C2003      C2004   1.400       .  A
C2003      H2012   1.084       .  S
C2004      C2010   1.405       .  A
C2004      C2005   1.415       .  A
C2005      C2007   1.403       .  A
C2005      C2006   1.410       .  A
C2006      H2013   1.084       .  S
C2007      C2008   1.401       .  A
C2007      H2014   1.084       .  S
C2008      C2009   1.405       .  A
C2008      H2015   1.083       .  S
C2009      C2010   1.403       .  A
C2010      H2016   1.085       .  S
C2017      C2018   1.404       .  A
C2017      C2022   1.408       .  A
C2018      C2019   1.396       .  A
C2018      H2027   1.083       .  S
C2019      C2020   1.401       .  A
C2019      H2028   1.084       .  S
C2020      C2026   1.404       .  A
C2020      C2021   1.415       .  A
C2021      C2023   1.406       .  A
C2021      C2022   1.412       .  A
C2022      H2029   1.084       .  S
C2023      C2024   1.404       .  A
C2023      H2030   1.083       .  S
C2024      C2025   1.405       .  A
C2024      H2031   1.083       .  S
C2025      C2026   1.404       .  A
C2026      H2032   1.085       .  S
C2033      C2034   1.407       .  A
C2033      C2038   1.416       .  A
C2034      C2035   1.395       .  A
C2034      H2043   1.081       .  S
C2035      C2036   1.400       .  A
C2035      H2044   1.084       .  S
C2036      C2042   1.400       .  A
C2036      C2037   1.410       .  A
C2037      C2039   1.410       .  A
C2037      C2038   1.411       .  A
C2038      H2045   1.082       .  S
C2039      C2040   1.407       .  A
C2039      H2046   1.083       .  S
C2040      C2041   1.402       .  A
C2040      H2047   1.082       .  S
C2041      C2042   1.408       .  A
C2042      H2048   1.085       .  S
C2049      C2050   1.405       .  A
C2049      C2054   1.414       .  A
C2050      C2051   1.398       .  A
C2050      H2059   1.083       .  S
C2051      C2052   1.402       .  A
C2051      H2060   1.084       .  S
C2052      C2058   1.405       .  A
C2052      C2053   1.413       .  A
C2053      C2055   1.409       .  A
C2053      C2054   1.414       .  A
C2054      H2061   1.083       .  S
C2055      C2056   1.406       .  A
C2055      H2062   1.083       .  S
C2056      C2057   1.403       .  A
C2056      H2063   1.083       .  S
C2057      C2058   1.406       .  A
C2058      H2064   1.085       .  S
C2065      C2066   1.406       .  A
C2065      C2070   1.412       .  A
C2066      C2067   1.398       .  A
C2066      H2075   1.082       .  S
C2067      C2068   1.401       .  A
C2067      H2076   1.084       .  S
C2068      C2074   1.407       .  A
C2068      C2069   1.414       .  A
C2069      C2071   1.407       .  A
C2069      C2070   1.414       .  A
C2070      H2077   1.083       .  S
C2071      C2072   1.405       .  A
C2071      H2078   1.083       .  S
C2072      C2073   1.404       .  A
C2072      H2079   1.083       .  S
C2073      C2074   1.406       .  A
C2074      H2080   1.085       .  S
C2081      C2082   1.404       .  A
C2081      C2086   1.417       .  A
C2082      C2083   1.398       .  A
C2082      H2091   1.083       .  S
C2083      C2084   1.403       .  A
C2083      H2092   1.084       .  S
C2084      C2090   1.406       .  A
C2084      C2085   1.411       .  A
C2085      C2087   1.412       .  A
C2085      C2086   1.419       .  A
C2086      H2093   1.084       .  S
C2087      C2088   1.412       .  A
C2087      H2094   1.083       .  S
C2088      C2089   1.405       .  A
C2088      H2095   1.083       .  S
C2089      C2090   1.410       .  A
C2090      H2096   1.085       .  S
C2097      C2098   1.402       .  A
C2097      C2102   1.405       .  A
C2098      C2099   1.403       .  A
C2098      H2107   1.083       .  S
C2099      C2100   1.407       .  A
C2099      H2108   1.083       .  S
C2100      C2106   1.409       .  A
C2100      C2101   1.413       .  A
C2101      C2103   1.401       .  A
C2101      C2102   1.404       .  A
C2102      H2109   1.085       .  S
C2103      C2104   1.397       .  A
C2103      H2110   1.084       .  S
C2104      C2105   1.406       .  A
C2104      H2111   1.082       .  S
C2105      C2106   1.412       .  A
C2106      H2112   1.083       .  S
C2113      C2114   1.402       .  A
C2113      C2118   1.412       .  A
C2114      C2115   1.393       .  A
C2114      H2123   1.083       .  S
C2115      C2116   1.401       .  A
C2115      H2124   1.084       .  S
C2116      C2122   1.398       .  A
C2116      C2117   1.411       .  A
C2117      C2119   1.410       .  A
C2117      C2118   1.414       .  A
C2118      H2125   1.084       .  S
C2119      C2120   1.410       .  A
C2119      H2126   1.083       .  S
C2120      C2121   1.406       .  A
C2120      H2127   1.082       .  S
C2121      C2122   1.409       .  A
C2122      H2128   1.085       .  S
C2129      C2130   1.402       .  A
C2129      C2134   1.406       .  A
C2130      C2131   1.397       .  A
C2130      H2139   1.083       .  S
C2131      C2132   1.403       .  A
C2131      H2140   1.084       .  S
C2132      C2138   1.399       .  A
C2132      C2133   1.413       .  A
C2133      C2135   1.405       .  A
C2133      C2134   1.401       .  A
C2134      H2141   1.084       .  S
C2135      C2136   1.399       .  A
C2135      H2142   1.083       .  S
C2136      C2137   1.400       .  A
C2136      H2143   1.083       .  S
C2137      C2138   1.404       .  A
C2138      H2144   1.085       .  S
C2145      C2146   1.404       .  A
C2145      C2150   1.413       .  A
C2146      C2147   1.395       .  A
C2146      H2155   1.082       .  S
C2147      C2148   1.401       .  A
C2147      H2156   1.084       .  S
C2148      C2154   1.402       .  A
C2148      C2149   1.412       .  A
C2149      C2151   1.408       .  A
C2149      C2150   1.411       .  A
C2150      H2157   1.083       .  S
C2151      C2152   1.406       .  A
C2151      H2158   1.083       .  S
C2152      C2153   1.403       .  A
C2152      H2159   1.083       .  S
C2153      C2154   1.406       .  A
C2154      H2160   1.085       .  S
C2161      C2162   1.405       .  A
C2161      C2166   1.409       .  A
C2162      C2163   1.400       .  A
C2162      H2171   1.083       .  S
C2163      C2164   1.404       .  A
C2163      H2172   1.083       .  S
C2164      C2170   1.410       .  A
C2164      C2165   1.411       .  A
C2165      C2167   1.403       .  A
C2165      C2166   1.412       .  A
C2166      H2173   1.083       .  S
C2167      C2168   1.403       .  A
C2167      H2174   1.083       .  S
C2168      C2169   1.411       .  A
C2168      H2175   1.078       .  S
C2169      C2170   1.417       .  A
C2170      H2176   1.081       .  S
C2177      C2178   1.407       .  A
C2177      C2182   1.405       .  A
C2178      C2179   1.405       .  A
C2178      H2187   1.083       .  S
C2179      C2180   1.406       .  A
C2179      H2188   1.083       .  S
C2180      C2186   1.417       .  A
C2180      C2181   1.415       .  A
C2181      C2183   1.400       .  A
C2181      C2182   1.409       .  A
C2182      H2189   1.084       .  S
C2183      C2184   1.397       .  A
C2183      H2190   1.084       .  S
C2184      C2185   1.407       .  A
C2184      H2191   1.083       .  S
C2185      C2186   1.410       .  A
C2186      H2192   1.084       .  S
C2193      C2194   1.407       .  A
C2193      C2198   1.412       .  A
C2194      C2195   1.409       .  A
C2194      H2203   1.082       .  S
C2195      C2196   1.409       .  A
C2195      H2204   1.083       .  S
C2196      C2202   1.417       .  A
C2196      C2197   1.413       .  A
C2197      C2199   1.404       .  A
C2197      C2198   1.406       .  A
C2198      H2205   1.084       .  S
C2199      C2200   1.398       .  A
C2199      H2206   1.084       .  S
C2200      C2201   1.402       .  A
C2200      H2207   1.083       .  S
C2201      C2202   1.412       .  A
C2202      H2208   1.084       .  S
C2209      C2210   1.411       .  A
C2209      C2214   1.406       .  A
C2210      C2211   1.397       .  A
C2210      H2219   1.083       .  S
C2211      C2212   1.398       .  A
C2211      H2220   1.084       .  S
C2212      C2218   1.411       .  A
C2212      C2213   1.416       .  A
C2213      C2215   1.399       .  A
C2213      C2214   1.411       .  A
C2214      H2221   1.081       .  S
C2215      C2216   1.397       .  A
C2215      H2222   1.084       .  S
C2216      C2217   1.410       .  A
C2216      H2223   1.083       .  S
C2217      C2218   1.406       .  A
C2218      H2224   1.084       .  S
C2225      C2226   1.403       .  A
C2225      C2230   1.412       .  A
C2226      C2227   1.403       .  A
C2226      H2235   1.083       .  S
C2227      C2228   1.407       .  A
C2227      H2236   1.083       .  S
C2228      C2234   1.410       .  A
C2228      C2229   1.409       .  A
C2229      C2231   1.404       .  A
C2229      C2230   1.413       .  A
C2230      H2237   1.084       .  S
C2231      C2232   1.405       .  A
C2231      H2238   1.084       .  S
C2232      C2233   1.412       .  A
C2232      H2239   1.078       .  S
C2233      C2234   1.421       .  A
C2234      H2240   1.079       .  S
C2241      C2242   1.406       .  A
C2241      C2246   1.411       .  A
C2242      C2243   1.397       .  A
C2242      H2251   1.082       .  S
C2243      C2244   1.401       .  A
C2243      H2252   1.084       .  S
C2244      C2250   1.405       .  A
C2244      C2245   1.413       .  A
C2245      C2247   1.407       .  A
C2245      C2246   1.412       .  A
C2246      H2253   1.083       .  S
C2247      C2248   1.404       .  A
C2247      H2254   1.083       .  S
C2248      C2249   1.403       .  A
C2248      H2255   1.083       .  S
C2249      C2250   1.406       .  A
C2250      H2256   1.085       .  S
C2257      C2258   1.405       .  A
C2257      C2262   1.408       .  A
C2258      C2259   1.400       .  A
C2258      H2267   1.082       .  S
C2259      C2260   1.405       .  A
C2259      H2268   1.084       .  S
C2260      C2266   1.404       .  A
C2260      C2261   1.411       .  A
C2261      C2263   1.403       .  A
C2261      C2262   1.401       .  A
C2262      H2269   1.084       .  S
C2263      C2264   1.397       .  A
C2263      H2270   1.083       .  S
C2264      C2265   1.404       .  A
C2264      H2271   1.083       .  S
C2265      C2266   1.411       .  A
C2266      H2272   1.084       .  S
C2273      C2274   1.407       .  A
C2273      C2278   1.412       .  A
C2274      C2275   1.407       .  A
C2274      H2283   1.081       .  S
C2275      C2276   1.408       .  A
C2275      H2284   1.084       .  S
C2276      C2282   1.414       .  A
C2276      C2277   1.411       .  A
C2277      C2279   1.403       .  A
C2277      C2278   1.403       .  A
C2278      H2285   1.084       .  S
C2279      C2280   1.396       .  A
C2279      H2286   1.084       .  S
C2280      C2281   1.403       .  A
C2280      H2287   1.083       .  S
C2281      C2282   1.412       .  A
C2282      H2288   1.084       .  S
C2289      C2290   1.406       .  A
C2289      C2294   1.413       .  A
C2290      C2291   1.397       .  A
C2290      H2299   1.082       .  S
C2291      C2292   1.402       .  A
C2291      H2300   1.084       .  S
C2292      C2298   1.401       .  A
C2292      C2293   1.410       .  A
C2293      C2295   1.406       .  A
C2293      C2294   1.405       .  A
C2294      H2301   1.083       .  S
C2295      C2296   1.402       .  A
C2295      H2302   1.084       .  S
C2296      C2297   1.405       .  A
C2296      H2303   1.081       .  S
C2297      C2298   1.409       .  A
C2298      H2304   1.084       .  S
C2305      C2306   1.403       .  A
C2305      C2310   1.410       .  A
C2306      C2307   1.398       .  A
C2306      H2315   1.083       .  S
C2307      C2308   1.404       .  A
C2307      H2316   1.083       .  S
C2308      C2314   1.405       .  A
C2308      C2309   1.410       .  A
C2309      C2311   1.404       .  A
C2309      C2310   1.412       .  A
C2310      H2317   1.084       .  S
C2311      C2312   1.405       .  A
C2311      H2318   1.083       .  S
C2312      C2313   1.411       .  A
C2312      H2319   1.078       .  S
C2313      C2314   1.417       .  A
C2314      H2320   1.079       .  S
C2321      C2322   1.405       .  A
C2321      C2326   1.405       .  A
C2322      C2323   1.400       .  A
C2322      H2331   1.083       .  S
C2323      C2324   1.403       .  A
C2323      H2332   1.084       .  S
C2324      C2330   1.409       .  A
C2324      C2325   1.415       .  A
C2325      C2327   1.402       .  A
C2325      C2326   1.409       .  A
C2326      H2333   1.084       .  S
C2327      C2328   1.399       .  A
C2327      H2334   1.084       .  S
C2328      C2329   1.405       .  A
C2328      H2335   1.083       .  S
C2329      C2330   1.405       .  A
C2330      H2336   1.084       .  S
C2337      C2338   1.405       .  A
C2337      C2342   1.411       .  A
C2338      C2339   1.398       .  A
C2338      H2347   1.082       .  S
C2339      C2340   1.403       .  A
C2339      H2348   1.084       .  S
C2340      C2346   1.404       .  A
C2340      C2341   1.413       .  A
C2341      C2343   1.406       .  A
C2341      C2342   1.406       .  A
C2342      H2349   1.083       .  S
C2343      C2344   1.401       .  A
C2343      H2350   1.084       .  S
C2344      C2345   1.401       .  A
C2344      H2351   1.083       .  S
C2345      C2346   1.405       .  A
C2346      H2352   1.085       .  S
C2353      C2354   1.401       .  A
C2353      C2358   1.410       .  A
C2354      C2355   1.396       .  A
C2354      H2363   1.083       .  S
C2355      C2356   1.403       .  A
C2355      H2364   1.084       .  S
C2356      C2362   1.403       .  A
C2356      C2357   1.413       .  A
C2357      C2359   1.408       .  A
C2357      C2358   1.414       .  A
C2358      H2365   1.084       .  S
C2359      C2360   1.407       .  A
C2359      H2366   1.083       .  S
C2360      C2361   1.406       .  A
C2360      H2367   1.082       .  S
C2361      C2362   1.409       .  A
C2362      H2368   1.084       .  S
C2369      C2370   1.406       .  A
C2369      C2374   1.414       .  A
C2370      C2371   1.398       .  A
C2370      H2379   1.082       .  S
C2371      C2372   1.402       .  A
C2371      H2380   1.084       .  S
C2372      C2378   1.404       .  A
C2372      C2373   1.412       .  A
C2373      C2375   1.408       .  A
C2373      C2374   1.412       .  A
C2374      H2381   1.083       .  S
C2375      C2376   1.406       .  A
C2375      H2382   1.083       .  S
C2376      C2377   1.403       .  A
C2376      H2383   1.082       .  S
C2377      C2378   1.408       .  A
C2378      H2384   1.085       .  S
C2385      C2386   1.406       .  A
C2385      C2390   1.408       .  A
C2386      C2387   1.405       .  A
C2386      H2395   1.082       .  S
C2387      C2388   1.406       .  A
C2387      H2396   1.084       .  S
C2388      C2394   1.411       .  A
C2388      C2389   1.413       .  A
C2389      C2391   1.403       .  A
C2389      C2390   1.402       .  A
C2390      H2397   1.085       .  S
C2391      C2392   1.396       .  A
C2391      H2398   1.084       .  S
C2392      C2393   1.401       .  A
C2392      H2399   1.083       .  S
C2393      C2394   1.407       .  A
C2394      H2400   1.084       .  S
C2401      C2402   1.405       .  A
C2401      C2406   1.413       .  A
C2402      C2403   1.398       .  A
C2402      H2411   1.082       .  S
C2403      C2404   1.402       .  A
C2403      H2412   1.084       .  S
C2404      C2410   1.406       .  A
C2404      C2405   1.413       .  A
C2405      C2407   1.407       .  A
C2405      C2406   1.413       .  A
C2406      H2413   1.083       .  S
C2407      C2408   1.405       .  A
C2407      H2414   1.084       .  S
C2408      C2409   1.404       .  A
C2408      H2415   1.083       .  S
C2409      C2410   1.407       .  A
C2410      H2416   1.085       .  S
C2417      C2418   1.404       .  A
C2417      C2422   1.408       .  A
C2418      C2419   1.396       .  A
C2418      H2427   1.083       .  S
C2419      C2420   1.400       .  A
C2419      H2428   1.084       .  S
C2420      C2426   1.406       .  A
C2420      C2421   1.415       .  A
C2421      C2423   1.405       .  A
C2421      C2422   1.413       .  A
C2422      H2429   1.084       .  S
C2423      C2424   1.403       .  A
C2423      H2430   1.083       .  S
C2424      C2425   1.406       .  A
C2424      H2431   1.083       .  S
C2425      C2426   1.403       .  A
C2426      H2432   1.085       .  S
C2433      C2434   1.405       .  A
C2433      C2438   1.416       .  A
C2434      C2435   1.397       .  A
C2434      H2443   1.082       .  S
C2435      C2436   1.401       .  A
C2435      H2444   1.084       .  S
C2436      C2442   1.405       .  A
C2436      C2437   1.412       .  A
C2437      C2439   1.410       .  A
C2437      C2438   1.415       .  A
C2438      H2445   1.083       .  S
C2439      C2440   1.408       .  A
C2439      H2446   1.083       .  S
C2440      C2441   1.403       .  A
C2440      H2447   1.083       .  S
C2441      C2442   1.407       .  A
C2442      H2448   1.085       .  S
