geometry optimzed in LAMMPS
_audit_creation_date              2020-11-30 
_audit_creation_method            'lammps2cif' 
_symmetry_space_group_name_H-M    'P1' 
_symmetry_Int_Tables_number       1 
_symmetry_cell_setting            triclinic 
loop_ 
_symmetry_equiv_pos_as_xyz 
  x,y,z 
_cell_length_a                    32.84619889 
_cell_length_b                    28.50238602319097 
_cell_length_c                    37.18780212236654 
_cell_angle_alpha                 90.62989408188844 
_cell_angle_beta                  91.44486360933008 
_cell_angle_gamma                 90.34722890360135 
loop_ 
_atom_site_label 
_atom_site_type_symbol 
_atom_site_fract_x 
_atom_site_fract_y 
_atom_site_fract_z 
_atom_site_charge 
N1          N  0.02407280  0.23451876  0.20146022    -0.01400
C2          C  0.01887584  0.19765610  0.17816276     0.01200
C3          C  0.98777226  0.20726614  0.15367082    -0.21700
C4          C  0.97656912  0.25288591  0.15971745    -0.21900
C5          C  0.00155310  0.27023196  0.18748219     0.01100
H6          H  0.97831751  0.18603355  0.13062350     0.14900
H7          H  0.95786196  0.27303625  0.14125046     0.14900
N8          N  0.17018259  0.55844466  0.11318690    -0.25200
N9          N  0.16191107  0.53719082  0.14364224    -0.33100
C10         C  0.18416408  0.55703519  0.17065421     0.03100
C11         C  0.20755101  0.59276544  0.15671922     0.09100
C12         C  0.19801088  0.59240432  0.12021661    -0.04000
H13         H  0.18063835  0.54867622  0.19868238     0.09800
H14         H  0.20792608  0.61770178  0.10072290     0.11000
Cu15       Cu  0.11495792  0.48928622  0.14984186     0.44200
Cu16       Cu  0.13804088  0.54708040  0.06459600     0.42000
Cu17       Cu  0.04215364  0.48872023  0.07664940     0.43900
N18         N  0.06127625  0.45076632  0.15011789    -0.32600
N19         N  0.03370832  0.45247411  0.12369052    -0.26900
C20         C  0.00394406  0.42128686  0.12984905    -0.03000
C21         C  0.01342407  0.39835951  0.16142380     0.09200
C22         C  0.04992940  0.41807869  0.17375384     0.03000
H23         H  0.97942256  0.41263361  0.11091077     0.10700
H24         H  0.06815584  0.40744064  0.19685410     0.09800
N25         N  0.06066592  0.51286367  0.02746367    -0.34100
N26         N  0.09623140  0.53343265  0.02245695    -0.26200
C27         C  0.10001949  0.54141621  0.98703681    -0.01500
C28         C  0.06530474  0.52463195  0.96906278     0.07100
C29         C  0.04103286  0.50694124  0.99557662     0.05200
H30         H  0.12640858  0.55733218  0.97518839     0.10300
H31         H  0.01155740  0.49009547  0.99196697     0.09200
N32         N  0.04836392  0.23439206  0.23388611    -0.01400
C33         C  0.55910438  0.19514544  0.24957551     0.01200
C34         C  0.59159499  0.20567123  0.27267457    -0.21700
C35         C  0.60176705  0.25163139  0.26686978    -0.21900
C36         C  0.06876244  0.27093439  0.25019014     0.01100
H37         H  0.60348939  0.18432273  0.29434070     0.14900
H38         H  0.62162856  0.27264809  0.28435920     0.14900
N39         N  0.38609255  0.56525752  0.32083516    -0.25200
N40         N  0.38467816  0.53563450  0.29317210    -0.33100
C41         C  0.36024268  0.55297180  0.26703830     0.03100
C42         C  0.34537517  0.59579527  0.27854795     0.09100
C43         C  0.36215710  0.60216174  0.31289390    -0.04000
H44         H  0.35653537  0.53724087  0.24058101     0.09800
H45         H  0.36013576  0.63345389  0.32949933     0.11000
Cu46       Cu  0.42208907  0.47803879  0.28751855     0.44200
Cu47       Cu  0.42698923  0.55913476  0.36482084     0.42000
Cu48       Cu  0.98258680  0.46047177  0.36885307     0.43900
N49         N  0.47018221  0.43251900  0.28118082    -0.32600
N50         N  0.98158766  0.41846371  0.32328879    -0.26900
C51         C  0.00805972  0.38465277  0.31456609    -0.03000
C52         C  0.50998683  0.37405333  0.26546748     0.09200
C53         C  0.47188521  0.39354773  0.26058667     0.03000
H54         H  0.03485918  0.37566015  0.33039983     0.10700
H55         H  0.44671128  0.37939912  0.24445741     0.09800
N56         N  0.97401961  0.49799414  0.41577276    -0.34100
N57         N  0.94708914  0.53186427  0.41958240    -0.26200
C58         C  0.95001173  0.54843765  0.45374514    -0.01500
C59         C  0.98003519  0.52331890  0.47200187     0.07100
C60         C  0.99434139  0.49173445  0.44703488     0.05200
H61         H  0.93185274  0.57667058  0.46440661     0.10300
H62         H  0.01818753  0.46611969  0.45109683     0.09200
N63         N  0.03433694  0.87678377  0.69991593    -0.01400
C64         C  0.03712009  0.91611519  0.67966871     0.01200
C65         C  0.00796935  0.91436502  0.65213598    -0.21700
C66         C  0.98874400  0.87162823  0.65413207    -0.21900
C67         C  0.00674989  0.84807283  0.68254676     0.01100
H68         H  0.00457206  0.93880565  0.63019912     0.14900
H69         H  0.96861705  0.85659329  0.63351114     0.14900
N70         N  0.13927768  0.50593722  0.62234725    -0.25200
N71         N  0.15068562  0.53604903  0.64803642    -0.33100
C72         C  0.18645883  0.52139617  0.66285004     0.03100
C73         C  0.19780938  0.48047216  0.64512648     0.09100
C74         C  0.16736442  0.47226603  0.61960956    -0.04000
H75         H  0.20382071  0.54028855  0.68350222     0.09800
H76         H  0.16615268  0.44417506  0.59977596     0.11000
Cu77       Cu  0.11701991  0.59714755  0.65787260     0.44200
Cu78       Cu  0.08732037  0.51156533  0.59006941     0.42000
Cu79       Cu  0.01802938  0.60311913  0.60744516     0.43900
N80         N  0.07623084  0.65372388  0.65941732    -0.32600
N81         N  0.03988914  0.65400269  0.64312032    -0.26900
C82         C  0.02259158  0.69617135  0.64797050    -0.03000
C83         C  0.04942100  0.72428240  0.66774709     0.09200
C84         C  0.08309390  0.69636334  0.67448950     0.03000
H85         H  0.99406246  0.70670002  0.63546644     0.10700
H86         H  0.11113874  0.70685151  0.68830404     0.09800
N87         N  0.01114539  0.55891468  0.56322154    -0.34100
N88         N  0.03722832  0.52490110  0.55697015    -0.26200
C89         C  0.02871862  0.50589556  0.52446011    -0.01500
C90         C  0.99590274  0.52934635  0.50922259     0.07100
C91         C  0.98536055  0.56271274  0.53463665     0.05200
H92         H  0.04675741  0.47885997  0.51196236     0.10300
H93         H  0.96236793  0.58952139  0.53172189     0.09200
N94         N  0.04687073  0.87436184  0.73678517    -0.01400
C95         C  0.05283582  0.91249789  0.75863696     0.01200
C96         C  0.58426263  0.89373838  0.78261284    -0.21700
C97         C  0.59325704  0.84694545  0.77946392    -0.21900
C98         C  0.06682932  0.83816172  0.75277095     0.01100
H99         H  0.59134543  0.91549267  0.80600478     0.14900
H100        H  0.60762262  0.82618353  0.80036615     0.14900
N101        N  0.43912719  0.50006268  0.79271827    -0.25200
N102        N  0.43727163  0.52817752  0.76461174    -0.33100
C103        C  0.40740789  0.51235989  0.74174312     0.03100
C104        C  0.39024766  0.47243636  0.75632681     0.09100
C105        C  0.41115373  0.46580711  0.78842918    -0.04000
H106        H  0.39929875  0.52818258  0.71627834     0.09800
H107        H  0.40640969  0.43792664  0.80740139     0.11000
Cu108      Cu  0.47766114  0.58503178  0.75895587     0.44200
Cu109      Cu  0.47923472  0.50685924  0.83641521     0.42000
Cu110      Cu  0.06297458  0.58071131  0.82564704     0.43900
N111        N  0.52647541  0.63305650  0.76361086    -0.32600
N112        N  0.05484197  0.63365443  0.78884440    -0.26900
C113        C  0.07829902  0.67228542  0.78849838    -0.03000
C114        C  0.06022815  0.70456677  0.76614616     0.09200
C115        C  0.52992411  0.67585217  0.74864818     0.03000
H116        H  0.10524603  0.67774355  0.80543074     0.10700
H117        H  0.50718570  0.69136703  0.73097076     0.09800
N118        N  0.05608535  0.54403853  0.87262329    -0.34100
N119        N  0.02382868  0.51727164  0.87733941    -0.26200
C120        C  0.02275946  0.50481633  0.91209578    -0.01500
C121        C  0.05616473  0.52482837  0.93005416     0.07100
C122        C  0.07676829  0.54921289  0.90410808     0.05200
H123        H  0.99853300  0.48450569  0.92369225     0.10300
H124        H  0.10312669  0.57174099  0.90829384     0.09200
N125        N  0.29151013  0.36658671  0.69804552    -0.01400
C126        C  0.28870786  0.40428088  0.67588352     0.01200
C127        C  0.31099398  0.39606076  0.64541659    -0.21700
C128        C  0.32512650  0.35102987  0.64765384    -0.21900
C129        C  0.31105389  0.33241780  0.67937217     0.01100
H130        H  0.31289050  0.41813115  0.62202351     0.14900
H131        H  0.33830711  0.33191518  0.62555080     0.14900
N132        N  0.18224842  0.00238701  0.60694204    -0.25200
N133        N  0.18109456  0.02931874  0.63619311    -0.33100
C134        C  0.14959785  0.01485275  0.65628921     0.03100
C135        C  0.13023262  0.97743983  0.63851097     0.09100
C136        C  0.15179910  0.97090555  0.60754235    -0.04000
H137        H  0.14042418  0.03160841  0.68101227     0.09800
H138        H  0.14513462  0.94558856  0.58628526     0.11000
Cu139      Cu  0.22136472  0.08629149  0.64577404     0.44200
Cu140      Cu  0.22286736  0.00732144  0.56507802     0.42000
Cu141      Cu  0.30158470  0.08875860  0.58014897     0.43900
N142        N  0.26791180  0.13753960  0.64562178    -0.32600
N143        N  0.29787136  0.13592813  0.62250781    -0.26900
C144        C  0.32217268  0.17356089  0.62751416    -0.03000
C145        C  0.30682065  0.20111944  0.65460617     0.10000
C146        C  0.27230866  0.17721796  0.66568300     0.03000
H147        H  0.34761749  0.18202110  0.61075002     0.10700
H148        H  0.25115930  0.18864291  0.68579526     0.09800
N149        N  0.29796630  0.04727579  0.53427392    -0.34100
N150        N  0.26821635  0.01678050  0.52783712    -0.26200
C151        C  0.27330483  0.99682225  0.49518578    -0.01500
C152        C  0.30798346  0.01606862  0.48055438     0.07100
C153        C  0.32271960  0.04785012  0.50614341     0.05200
H154        H  0.25303592  0.97087364  0.48286445     0.10300
H155        H  0.34912773  0.07050126  0.50426013     0.09200
N156        N  0.28761870  0.36933004  0.73610243    -0.01400
C157        C  0.28921551  0.41038707  0.75523567     0.01200
C158        C  0.26764379  0.40658186  0.78635967    -0.21700
C159        C  0.25380826  0.36113878  0.78750893    -0.21900
C160        C  0.26744409  0.33838832  0.75711205     0.01100
H161        H  0.26605232  0.43238960  0.80782993     0.14900
H162        H  0.24001259  0.34491949  0.81042749     0.14900
N163        N  0.42610268  0.01535296  0.82741692    -0.25200
N164        N  0.42901525  0.03915950  0.79717705    -0.33100
C165        C  0.45913047  0.02020552  0.77753396     0.03100
C166        C  0.47594674  0.98316516  0.79669996     0.09100
C167        C  0.45427241  0.98148578  0.82798952    -0.04000
H168        H  0.46879938  0.03326505  0.75188745     0.09800
H169        H  0.45886271  0.95729151  0.84991534     0.11000
Cu170      Cu  0.39252853  0.09772160  0.78582718     0.44200
Cu171      Cu  0.38456716  0.02725161  0.86804491     0.42000
Cu172      Cu  0.31364330  0.11713751  0.85257740     0.43900
N173        N  0.35053382  0.15300726  0.78385411    -0.32600
N174        N  0.32103952  0.15819117  0.80718298    -0.26900
C175        C  0.30042237  0.19768701  0.79968257    -0.03000
C176        C  0.31799887  0.21907312  0.77063088     0.09200
C177        C  0.34979300  0.18989656  0.76138472     0.03000
H178        H  0.27664500  0.21184911  0.81612997     0.10700
H179        H  0.37190398  0.19616017  0.74083457     0.09800
N180        N  0.31246583  0.07574312  0.89837674    -0.34100
N181        N  0.33885323  0.04177590  0.90441522    -0.26200
C182        C  0.32986980  0.02062693  0.93560343    -0.01500
C183        C  0.29619424  0.04257286  0.94990983     0.07100
C184        C  0.28619752  0.07741659  0.92552972     0.05200
H185        H  0.34644717  0.99134509  0.94689980     0.10300
H186        H  0.26126940  0.10195743  0.92716495     0.09200
N187        N  0.25921427  0.71586156  0.21775619    -0.01400
C188        C  0.23569602  0.68071742  0.23046986     0.01200
C189        C  0.20140386  0.69984263  0.24556659    -0.21700
C190        C  0.20160718  0.74702246  0.23801499    -0.21900
C191        C  0.23658733  0.75563571  0.21918125     0.01100
H192        H  0.17518666  0.68049930  0.25465127     0.14900
H193        H  0.17613504  0.77042315  0.24129155     0.14900
N194        N  0.14427356  0.08423354  0.09859079    -0.25200
N195        N  0.14396853  0.06641988  0.13119386    -0.33100
C196        C  0.11506980  0.08774362  0.15037219     0.03100
C197        C  0.09610597  0.12058956  0.12862362     0.09100
C198        C  0.11532433  0.11732303  0.09597106    -0.04000
H199        H  0.10774531  0.07894995  0.17770079     0.09800
H200        H  0.10868018  0.13746698  0.07206886     0.11000
Cu201      Cu  0.18072283  0.01094364  0.14591662     0.44200
Cu202      Cu  0.18473659  0.06119733  0.06019504     0.42000
Cu203      Cu  0.24743946  0.95695466  0.08019545     0.43900
N204        N  0.21014137  0.94782830  0.15364686    -0.32600
N205        N  0.23334475  0.92640624  0.13002056    -0.26900
C206        C  0.24341862  0.88380076  0.14321695    -0.03000
C207        C  0.22553667  0.87867545  0.17656658     0.09200
C208        C  0.20500547  0.92002884  0.18207972     0.03000
H209        H  0.26141747  0.85809382  0.12916604     0.10700
H210        H  0.18610857  0.92860440  0.20461952     0.09800
N211        N  0.25383864  0.99934167  0.03425691    -0.34100
N212        N  0.23074294  0.03641291  0.02772454    -0.26200
C213        C  0.24245818  0.05669316  0.99718683    -0.01500
C214        C  0.27450201  0.03167492  0.98338228     0.07100
C215        C  0.28098206  0.99540949  0.00759451     0.05200
H216        H  0.22870450  0.08791286  0.98600291     0.10300
H217        H  0.30381779  0.96832143  0.00599937     0.09200
N218        N  0.30043372  0.71278218  0.20701048    -0.01400
C219        C  0.32185544  0.67356133  0.19890787     0.01200
C220        C  0.35806858  0.68664763  0.18348398    -0.21700
C221        C  0.36086709  0.73476867  0.18603064    -0.21900
C222        C  0.32590419  0.74969667  0.20241781     0.01100
H223        H  0.38321208  0.66365949  0.17759056     0.14900
H224        H  0.38817020  0.75524392  0.18182902     0.14900
N225        N  0.44767413  0.06263930  0.32621708    -0.25200
N226        N  0.44419369  0.05037273  0.29194712    -0.33100
C227        C  0.47057219  0.07576597  0.27297997     0.03100
C228        C  0.49170480  0.10537723  0.29668089     0.09100
C229        C  0.47654628  0.09598407  0.33017194    -0.04000
H230        H  0.47409371  0.07261404  0.24419683     0.09800
H231        H  0.48518324  0.11288838  0.35542762     0.11000
Cu232      Cu  0.40409305  0.99894861  0.27380531     0.44200
Cu233      Cu  0.41053084  0.03578698  0.36498533     0.42000
Cu234      Cu  0.33354513  0.94871354  0.33899873     0.43900
N235        N  0.36765014  0.94083169  0.26404974    -0.32600
N236        N  0.34256943  0.92190331  0.28721513    -0.26900
C237        C  0.32807469  0.88120362  0.27308902    -0.03000
C238        C  0.34520137  0.87437087  0.23964962     0.09200
C239        C  0.36974519  0.91297219  0.23484625     0.03000
H240        H  0.30837436  0.85736570  0.28707341     0.10700
H241        H  0.38981462  0.91894797  0.21271000     0.09800
N242        N  0.33668750  0.98189426  0.38945859    -0.34100
N243        N  0.36544743  0.01289216  0.39835479    -0.26200
C244        C  0.35957413  0.02888618  0.43183886    -0.01500
C245        C  0.32551251  0.00710507  0.44503149     0.07100
C246        C  0.31164764  0.97737887  0.41748776     0.05200
H247        H  0.37851554  0.05519891  0.44532608     0.10300
H248        H  0.28514019  0.95466579  0.41763251     0.09200
C249        C  0.32409755  0.79327519  0.22437003    -0.14400
C250        C  0.34388519  0.83261041  0.21582715    -0.29500
H251        H  0.30667419  0.79224676  0.24872622     0.14600
H252        H  0.36093170  0.83378690  0.19122177     0.15200
C253        C  0.24133823  0.79633941  0.19460826    -0.14400
C254        C  0.22403779  0.83805735  0.20115280    -0.29500
H255        H  0.25889202  0.79153004  0.17052634     0.14600
H256        H  0.20720966  0.84282567  0.22567127     0.15200
C257        C  0.27332548  0.28696438  0.75870785    -0.14400
C258        C  0.31057906  0.26755649  0.75825763    -0.29500
H259        H  0.24783332  0.26596971  0.76764660     0.14600
H260        H  0.33660842  0.28843157  0.75033947     0.15200
C261        C  0.32207572  0.24888524  0.66385561    -0.14400
C262        C  0.29961374  0.28185021  0.68006777    -0.29500
H263        H  0.35148493  0.25871880  0.65336566     0.14600
H264        H  0.26959230  0.27265111  0.68934640     0.15200
C265        C  0.35743893  0.44133170  0.74190329    -0.14400
C266        C  0.31865244  0.44946706  0.75052966    -0.29500
H267        H  0.36605591  0.40625713  0.73339444     0.14600
H268        H  0.31139521  0.48303211  0.76292048     0.15200
C269        C  0.52644785  0.94205545  0.75695095    -0.14400
C270        C  0.51113290  0.95248913  0.78946404    -0.29500
H271        H  0.51240260  0.95667724  0.73289786     0.14600
H272        H  0.52290882  0.93415402  0.81292308     0.15200
C273        C  0.05151878  0.78907764  0.75250619    -0.14400
C274        C  0.07553663  0.75300847  0.76164850    -0.29500
H275        H  0.52563621  0.77482584  0.74160818     0.14600
H276        H  0.10742121  0.75969139  0.76846418     0.15200
C277        C  0.23613082  0.45357117  0.64696854    -0.14400
C278        C  0.25563112  0.44020121  0.67752559    -0.29500
H279        H  0.24534157  0.43872116  0.62146813     0.14600
H280        H  0.24345199  0.45060581  0.70322840     0.15200
C281        C  0.07468637  0.94588803  0.67784583    -0.14400
C282        C  0.09160015  0.95250665  0.64554788    -0.29500
H283        H  0.09024165  0.95824632  0.70226496     0.14600
H284        H  0.07743982  0.93563731  0.62201246     0.15200
C285        C  0.00980512  0.79636327  0.67946584    -0.14400
C286        C  0.04591766  0.77512798  0.67515713    -0.29500
H287        H  0.98176798  0.77621586  0.67592137     0.14600
H288        H  0.07390991  0.79552975  0.67805522     0.15200
C289        C  0.32581728  0.63292728  0.25655979    -0.14400
C290        C  0.32204698  0.63010019  0.22039640    -0.29500
H291        H  0.32061711  0.66643174  0.26984228     0.14600
H292        H  0.32988137  0.59783953  0.20655417     0.15200
C293        C  0.52327085  0.14050012  0.28903361    -0.14400
C294        C  0.52983111  0.15628129  0.25571615    -0.29500
H295        H  0.53980201  0.15574131  0.31199306     0.14600
H296        H  0.51034503  0.14370662  0.23376692     0.15200
C297        C  0.05024933  0.31616532  0.26074350    -0.14400
C298        C  0.01019373  0.32023661  0.26643223    -0.29500
H299        H  0.07062563  0.34470598  0.26904247     0.14600
H300        H  0.49919922  0.29964701  0.25210103     0.15200
C301        C  0.23106211  0.63422976  0.21270843    -0.14400
C302        C  0.22896900  0.63129336  0.17651954    -0.29500
H303        H  0.21991070  0.60553419  0.22874028     0.14600
H304        H  0.23822173  0.66131605  0.16083339     0.15200
C305        C  0.06184574  0.15187909  0.13702472    -0.14400
C306        C  0.05090891  0.16215513  0.17089539    -0.29500
H307        H  0.04681129  0.16908285  0.11446731     0.14600
H308        H  0.06881818  0.14787503  0.19292672     0.15200
C309        C  0.99403202  0.35449617  0.17292304    -0.14400
C310        C  0.01653452  0.31925457  0.18623037    -0.29500
H311        H  0.96218426  0.34871035  0.16548846     0.14600
H312        H  0.04890227  0.32494700  0.19112411     0.15200
N313        N  0.52605414  0.23046557  0.19580120    -0.01400
C314        C  0.51811322  0.19157467  0.17526739     0.01200
C315        C  0.48611226  0.20018283  0.15138291    -0.21700
C316        C  0.47718584  0.24694842  0.15475316    -0.21900
C317        C  0.50409933  0.26561234  0.18046247     0.01100
H318        H  0.47445524  0.17704714  0.13025706     0.14900
H319        H  0.45845640  0.26633202  0.13579850     0.14900
N320        N  0.66493172  0.56670116  0.11382666    -0.25200
N321        N  0.65842466  0.54179651  0.14296220    -0.33100
C322        C  0.68083921  0.55974957  0.17066820     0.03100
C323        C  0.70257619  0.59798829  0.15852300     0.09100
C324        C  0.69185660  0.60111300  0.12234804    -0.04000
H325        H  0.67880611  0.54795429  0.19809406     0.09800
H326        H  0.70051100  0.62873558  0.10425486     0.11000
Cu327      Cu  0.61376194  0.49041949  0.14623913     0.44200
Cu328      Cu  0.63185377  0.55763683  0.06540815     0.42000
Cu329      Cu  0.53817862  0.49253140  0.07563469     0.43900
N330        N  0.56142739  0.44937433  0.14606915    -0.32600
N331        N  0.53211059  0.45322078  0.12134164    -0.26900
C332        C  0.50313032  0.42091812  0.12710136    -0.03000
C333        C  0.51520826  0.39472985  0.15636389     0.09200
C334        C  0.55227028  0.41377645  0.16795227     0.03000
H335        H  0.47745698  0.41378567  0.10905599     0.10700
H336        H  0.57211052  0.40112739  0.18931129     0.09800
N337        N  0.55654523  0.51888425  0.02722744    -0.34100
N338        N  0.59112295  0.54187266  0.02279827    -0.26200
C339        C  0.59553868  0.54938571  0.98737217    -0.01500
C340        C  0.56232125  0.52971123  0.96887203     0.07100
C341        C  0.53822221  0.51097102  0.99503805     0.05200
H342        H  0.62157102  0.56652847  0.97588588     0.10300
H343        H  0.51006266  0.49145438  0.99097567     0.09200
N344        N  0.55114198  0.23213506  0.22779181    -0.01400
C345        C  0.05996811  0.19541371  0.25201529     0.01200
C346        C  0.09259128  0.20600638  0.27495742    -0.21700
C347        C  0.09846366  0.25364023  0.27338305    -0.21900
C348        C  0.57468111  0.26828362  0.24107540     0.01100
H349        H  0.10680975  0.18300818  0.29445502     0.14900
H350        H  0.11696629  0.27396498  0.29244330     0.14900
N351        N  0.87229818  0.55958791  0.32998613    -0.25200
N352        N  0.87128544  0.52958807  0.30253403    -0.33100
C353        C  0.84919030  0.54803464  0.27520731     0.03100
C354        C  0.83557242  0.59188982  0.28582025     0.09100
C355        C  0.85057997  0.59771956  0.32075412    -0.04000
H356        H  0.84596126  0.53203447  0.24880075     0.09800
H357        H  0.84857302  0.62910703  0.33724602     0.11000
Cu358      Cu  0.90566069  0.46873773  0.29998956     0.44200
Cu359      Cu  0.90779034  0.55126550  0.37713395     0.42000
Cu360      Cu  0.51205493  0.48466901  0.34179639     0.43900
N361        N  0.95136021  0.41879437  0.29918988    -0.32600
N362        N  0.50506845  0.43785682  0.29920909    -0.26900
C363        C  0.53038580  0.40310524  0.28998734    -0.03000
C364        C  0.99338479  0.36226546  0.28368606     0.09200
C365        C  0.95722346  0.38435070  0.27484914     0.03000
H366        H  0.55973190  0.39691727  0.30276584     0.10700
H367        H  0.93687045  0.37623840  0.25226928     0.09800
N368        N  0.50864686  0.52155705  0.38983224    -0.34100
N369        N  0.47745364  0.54773362  0.39928401    -0.26200
C370        C  0.48451939  0.56373562  0.43319039    -0.01500
C371        C  0.52180530  0.54656523  0.44542355     0.07100
C372        C  0.53609902  0.52013799  0.41716808     0.05200
H373        H  0.46387412  0.58571976  0.44797051     0.10300
H374        H  0.56410266  0.50030331  0.41669783     0.09200
N375        N  0.54030442  0.86777896  0.69516995    -0.01400
C376        C  0.53808427  0.90744830  0.67521570     0.01200
C377        C  0.50750528  0.90242360  0.64910980    -0.21700
C378        C  0.49298439  0.85734155  0.65132665    -0.21900
C379        C  0.51540075  0.83569368  0.67823517     0.01100
H380        H  0.50003461  0.92667717  0.62778559     0.14900
H381        H  0.47340477  0.84012771  0.63129826     0.14900
N382        N  0.68187472  0.52323358  0.59910270    -0.25200
N383        N  0.68508460  0.54296069  0.63146861    -0.33100
C384        C  0.71634188  0.52249274  0.64980054     0.03100
C385        C  0.73369538  0.48904668  0.62744442     0.09100
C386        C  0.71110573  0.49090683  0.59571862    -0.04000
H387        H  0.72634924  0.53207373  0.67684875     0.09800
H388        H  0.71533880  0.46967744  0.57182136     0.11000
Cu389      Cu  0.64722047  0.59898817  0.64661328     0.44200
Cu390      Cu  0.63713611  0.53766659  0.56017850     0.42000
Cu391      Cu  0.55638507  0.60882542  0.58671938     0.43900
N392        N  0.60419678  0.65362057  0.64896317    -0.32600
N393        N  0.57050114  0.65429390  0.62865279    -0.26900
C394        C  0.55025387  0.69422547  0.63470822    -0.03000
C395        C  0.57217871  0.72074838  0.65967821     0.09200
C396        C  0.60635540  0.69417852  0.66811271     0.03000
H397        H  0.52321568  0.70476228  0.61977402     0.10700
H398        H  0.63151482  0.70428927  0.68596126     0.09800
N399        N  0.55580155  0.57576371  0.53716593    -0.34100
N400        N  0.58666414  0.55001289  0.52665422    -0.26200
C401        C  0.57919339  0.53540657  0.49258141    -0.01500
C402        C  0.54187256  0.55313243  0.48110947     0.07100
C403        C  0.52792321  0.57858872  0.51013380     0.05200
H404        H  0.59962212  0.51383452  0.47719665     0.10300
H405        H  0.49996932  0.59836670  0.51135961     0.09200
N406        N  0.55422886  0.86654603  0.73176031    -0.01400
C407        C  0.55809334  0.90455745  0.75411410     0.01200
C408        C  0.08116716  0.90189962  0.78550291    -0.21700
C409        C  0.08978848  0.85504833  0.78190030    -0.21900
C410        C  0.57272154  0.83019326  0.74898011     0.01100
H411        H  0.09049476  0.92392772  0.80815310     0.14900
H412        H  0.10598954  0.83442921  0.80182505     0.14900
N413        N  0.94238586  0.49832756  0.79175128    -0.25200
N414        N  0.93817782  0.52866200  0.76519378    -0.33100
C415        C  0.90830458  0.51276624  0.74234283     0.03100
C416        C  0.89392758  0.47033515  0.75515515     0.09100
C417        C  0.91640476  0.46233166  0.78618964    -0.04000
H418        H  0.89855074  0.53006439  0.71789693     0.09800
H419        H  0.91379675  0.43254025  0.80380305     0.11000
Cu420      Cu  0.97606560  0.58830483  0.76113054     0.44200
Cu421      Cu  0.98167108  0.50525084  0.83592677     0.42000
Cu422      Cu  0.56508456  0.57501591  0.82325844     0.43900
N423        N  0.02266688  0.63928511  0.76715636    -0.32600
N424        N  0.55868263  0.62648811  0.78509189    -0.26900
C425        C  0.58330373  0.66409393  0.78407538    -0.03000
C426        C  0.56593351  0.69664732  0.76152071     0.09200
C427        C  0.02490948  0.68260126  0.75278856     0.03000
H428        H  0.61029777  0.66901196  0.80104448     0.10700
H429        H  0.00208961  0.69739341  0.73482037     0.09800
N430        N  0.55604401  0.54244001  0.87160953    -0.34100
N431        N  0.52282514  0.51751702  0.87692819    -0.26200
C432        C  0.52097121  0.50724785  0.91203784    -0.01500
C433        C  0.55451698  0.52728631  0.92971478     0.07100
C434        C  0.57626844  0.54910651  0.90319005     0.05200
H435        H  0.49578878  0.48908340  0.92408249     0.10300
H436        H  0.60309535  0.57101373  0.90691268     0.09200
N437        N  0.80672527  0.36160965  0.68979051    -0.01400
C438        C  0.80963126  0.39799758  0.66643280     0.01200
C439        C  0.83355279  0.38453953  0.63798926    -0.21700
C440        C  0.84183650  0.33774779  0.64223658    -0.21900
C441        C  0.82304329  0.32345800  0.67323135     0.01100
H442        H  0.84040189  0.40452450  0.61433152     0.14900
H443        H  0.85458902  0.31534750  0.62176889     0.14900
N444        N  0.67375419  0.00886689  0.60078181    -0.25200
N445        N  0.67459069  0.03172713  0.63204435    -0.33100
C446        C  0.64318303  0.01617517  0.65175990     0.03100
C447        C  0.62177543  0.98235847  0.63165596     0.09100
C448        C  0.64190860  0.97918171  0.59963935    -0.04000
H449        H  0.63623690  0.02885354  0.67842161     0.09800
H450        H  0.63441786  0.95595315  0.57720111     0.11000
Cu451      Cu  0.71892647  0.08302680  0.64578330     0.44200
Cu452      Cu  0.71655309  0.01284517  0.56048336     0.42000
Cu453      Cu  0.80437353  0.07527535  0.58489378     0.43900
N454        N  0.76895560  0.12966034  0.64737376    -0.32600
N455        N  0.80040941  0.12412708  0.62619178    -0.26900
C456        C  0.82648381  0.16010410  0.63122939    -0.03000
C457        C  0.81087823  0.19068473  0.65619495     0.10000
C458        C  0.77426169  0.17030953  0.66614251     0.03000
H459        H  0.85338426  0.16559290  0.61553558     0.10700
H460        H  0.75235081  0.18489034  0.68436045     0.09800
N461        N  0.79990678  0.03740521  0.53718535    -0.34100
N462        N  0.76643710  0.01451686  0.52706746    -0.26200
C463        C  0.77111426  0.99715154  0.49351806    -0.01500
C464        C  0.80936179  0.01036458  0.48203305     0.07100
C465        C  0.82669183  0.03567739  0.51051927     0.05200
H466        H  0.74787207  0.97807271  0.47814156     0.10300
H467        H  0.85600568  0.05324751  0.51131111     0.09200
N468        N  0.79575700  0.36599964  0.72652511    -0.01400
C469        C  0.79309087  0.40731494  0.74492451     0.01200
C470        C  0.77098254  0.40112257  0.77551784    -0.21700
C471        C  0.76291462  0.35388529  0.77764371    -0.21900
C472        C  0.78035910  0.33240417  0.74817743     0.01100
H473        H  0.76698836  0.42661881  0.79691479     0.14900
H474        H  0.75173072  0.33665754  0.80127804     0.14900
N475        N  0.92035338  0.01676009  0.83373169    -0.25200
N476        N  0.92071399  0.03991800  0.80301533    -0.33100
C477        C  0.95256575  0.02472206  0.78371781     0.03100
C478        C  0.97330026  0.99114117  0.80363896     0.09100
C479        C  0.95213104  0.98741824  0.83507126    -0.04000
H480        H  0.96038619  0.03769267  0.75753558     0.09800
H481        H  0.95884335  0.96405779  0.85714968     0.11000
Cu482      Cu  0.87868001  0.09277914  0.78983238     0.44200
Cu483      Cu  0.87605782  0.02081065  0.87276497     0.42000
Cu484      Cu  0.79311072  0.09185787  0.84988439     0.43900
N485        N  0.83168512  0.14255532  0.78808774    -0.32600
N486        N  0.79996482  0.13957009  0.80919167    -0.26900
C487        C  0.77523059  0.17604560  0.80333133    -0.03000
C488        C  0.79201998  0.20425263  0.77777016     0.09200
C489        C  0.82800322  0.18209996  0.76848037     0.03000
H490        H  0.74799694  0.18297835  0.81823990     0.10700
H491        H  0.85021058  0.19428804  0.74965608     0.09800
N492        N  0.79368681  0.05094037  0.89528792    -0.34100
N493        N  0.82507234  0.02474300  0.90475422    -0.26200
C494        C  0.81717040  0.00386904  0.93623075    -0.01500
C495        C  0.77892300  0.01792324  0.94693357     0.07100
C496        C  0.76504784  0.04778783  0.92029008     0.05200
H497        H  0.83790924  0.98082434  0.95047852     0.10300
H498        H  0.73649914  0.06652665  0.91935888     0.09200
N499        N  0.75643979  0.71579875  0.22505792    -0.01400
C500        C  0.73102431  0.68103987  0.23558032     0.01200
C501        C  0.69666722  0.70081400  0.25011796    -0.21700
C502        C  0.69891212  0.74836766  0.24442288    -0.21900
C503        C  0.73501761  0.75639136  0.22718816     0.01100
H504        H  0.66927849  0.68217219  0.25729373     0.14900
H505        H  0.67397955  0.77269858  0.24718250     0.14900
N506        N  0.63506382  0.06522284  0.09782757    -0.25200
N507        N  0.64187198  0.05736751  0.13237763    -0.33100
C508        C  0.61508358  0.08185362  0.15171741     0.03100
C509        C  0.59008960  0.10624465  0.12805483     0.09100
C510        C  0.60364829  0.09492980  0.09415026    -0.04000
H511        H  0.61339317  0.08083594  0.18072295     0.09800
H512        H  0.59153751  0.10734740  0.06867585     0.11000
Cu513      Cu  0.68417680  0.00940090  0.15061343     0.44200
Cu514      Cu  0.66959361  0.03495964  0.05804905     0.42000
Cu515      Cu  0.74345559  0.94605642  0.08413288     0.43900
N516        N  0.71503978  0.94795982  0.16100158    -0.32600
N517        N  0.73506686  0.92332292  0.13689015    -0.26900
C518        C  0.74478345  0.88146104  0.15125718    -0.03000
C519        C  0.72993009  0.87994144  0.18592777     0.09200
C520        C  0.71170817  0.92282526  0.19111363     0.03000
H521        H  0.75948879  0.85342698  0.13676689     0.10700
H522        H  0.69447084  0.93364093  0.21416432     0.09800
N523        N  0.74250133  0.97921919  0.03409034    -0.34100
N524        N  0.71437727  0.01013462  0.02473023    -0.26200
C525        C  0.72252346  0.02703028  0.99212300    -0.01500
C526        C  0.75769974  0.00633238  0.98023791     0.07100
C527        C  0.76959852  0.97603732  0.00746322     0.05200
H528        H  0.70510257  0.05422058  0.97886388     0.10300
H529        H  0.79655041  0.95440337  0.00833304     0.09200
N530        N  0.79732197  0.71114293  0.21355071    -0.01400
C531        C  0.81750712  0.67093777  0.20565456     0.01200
C532        C  0.85373848  0.68217525  0.18949937    -0.21700
C533        C  0.85785502  0.73024329  0.19109839    -0.21900
C534        C  0.82370845  0.74699057  0.20778618     0.01100
H535        H  0.87801812  0.65804376  0.18346157     0.14900
H536        H  0.88552843  0.74962833  0.18599773     0.14900
N537        N  0.95130989  0.05927151  0.32770962    -0.25200
N538        N  0.94727365  0.04730061  0.29337469    -0.33100
C539        C  0.97381108  0.07235472  0.27424572     0.03100
C540        C  0.99568109  0.10139644  0.29784426     0.09100
C541        C  0.98077261  0.09199191  0.33145306    -0.04000
H542        H  0.97671606  0.06965788  0.24536990     0.09800
H543        H  0.98976405  0.10887590  0.35666162     0.11000
Cu544      Cu  0.90577078  0.99728148  0.27489078     0.44200
Cu545      Cu  0.91358183  0.03376576  0.36697283     0.42000
Cu546      Cu  0.83360436  0.95102078  0.33859268     0.43900
N547        N  0.86793477  0.94035794  0.26419549    -0.32600
N548        N  0.84177854  0.92309816  0.28714079    -0.26900
C549        C  0.82649247  0.88249419  0.27355568    -0.03000
C550        C  0.84435247  0.87369806  0.24069458     0.09200
C551        C  0.87001262  0.91136961  0.23556735     0.03000
H552        H  0.80593724  0.85988370  0.28768808     0.10700
H553        H  0.89098962  0.91567849  0.21385755     0.09800
N554        N  0.83766913  0.98205630  0.38971851    -0.34100
N555        N  0.86744297  0.01116739  0.39985201    -0.26200
C556        C  0.86192720  0.02492038  0.43403113    -0.01500
C557        C  0.82703028  0.00364773  0.44622675     0.07100
C558        C  0.81231986  0.97670575  0.41740444     0.05200
H559        H  0.88162767  0.04938973  0.44871487     0.10300
H560        H  0.78521208  0.95492885  0.41656912     0.09200
C561        C  0.82370988  0.79150354  0.22876101    -0.14400
C562        C  0.84267465  0.83058945  0.21819080    -0.29500
H563        H  0.80765994  0.79158783  0.25386577     0.14600
H564        H  0.85859628  0.83056255  0.19296039     0.15200
C565        C  0.74082558  0.79693283  0.20298113    -0.14400
C566        C  0.72717782  0.84000176  0.21087697    -0.29500
H567        H  0.75640060  0.79080583  0.17799692     0.14600
H568        H  0.71233394  0.84606573  0.23626839     0.15200
C569        C  0.79640731  0.28395793  0.75128082    -0.14400
C570        C  0.77505877  0.25018970  0.76730304    -0.29500
H571        H  0.82753928  0.27736827  0.74360983     0.14600
H572        H  0.74437387  0.25783010  0.77582344     0.15200
C573        C  0.82840685  0.23780338  0.66401774    -0.14400
C574        C  0.80667299  0.27471588  0.67527025    -0.29500
H575        H  0.85966987  0.24357935  0.65617298     0.14600
H576        H  0.77505776  0.26986342  0.68232313     0.15200
C577        C  0.86273361  0.43784838  0.73982924    -0.14400
C578        C  0.82281783  0.44667925  0.74291782    -0.29500
H579        H  0.87230958  0.40200666  0.73476016     0.14600
H580        H  0.81353590  0.48099738  0.75260472     0.15200
C581        C  0.02182898  0.95035670  0.76253838    -0.14400
C582        C  0.01011330  0.96362696  0.79568836    -0.29500
H583        H  0.00423110  0.96151711  0.73910779     0.14600
H584        H  0.02521276  0.94859852  0.81911999     0.15200
C585        C  0.55770162  0.78103678  0.74776646    -0.14400
C586        C  0.58148275  0.74502423  0.75752800    -0.29500
H587        H  0.01923032  0.78294194  0.74758546     0.14600
H588        H  0.61310421  0.75178906  0.76538872     0.15200
C589        C  0.76925654  0.45787229  0.63305516    -0.14400
C590        C  0.78017962  0.43822528  0.66470196    -0.29500
H591        H  0.78349776  0.44615604  0.60860400     0.14600
H592        H  0.76264757  0.44717183  0.68805012     0.15200
C593        C  0.57246837  0.94182031  0.67227531    -0.14400
C594        C  0.58463115  0.95494822  0.63941183    -0.29500
H595        H  0.59067637  0.95157055  0.69597003     0.14600
H596        H  0.56861289  0.94080818  0.61575528     0.15200
C597        C  0.52505014  0.78542308  0.67274237    -0.14400
C598        C  0.56354663  0.76969548  0.67038921    -0.29500
H599        H  0.49981244  0.76180635  0.66603686     0.14600
H600        H  0.58909789  0.79302974  0.67666854     0.15200
C601        C  0.81827320  0.62985324  0.26323540    -0.14400
C602        C  0.81613744  0.62736288  0.22702886    -0.29500
H603        H  0.81332880  0.66347023  0.27644202     0.14600
H604        H  0.82386712  0.59489469  0.21340933     0.15200
C605        C  0.02700140  0.13687910  0.29010707    -0.14400
C606        C  0.03247672  0.15447072  0.25712292    -0.29500
H607        H  0.04381424  0.15159403  0.31310926     0.14600
H608        H  0.01265021  0.14263676  0.23510771     0.15200
C609        C  0.56110540  0.31717914  0.24603727    -0.14400
C610        C  0.52239878  0.32696099  0.25391207    -0.29500
H611        H  0.58420177  0.34456429  0.24856932     0.14600
H612        H  0.98928037  0.29197694  0.25886051     0.15200
C613        C  0.72575115  0.63567733  0.21623077    -0.14400
C614        C  0.72412072  0.63495279  0.17998715    -0.29500
H615        H  0.71378006  0.60634976  0.23110852     0.14600
H616        H  0.73387416  0.66584887  0.16555970     0.15200
C617        C  0.55591142  0.13766187  0.13602003    -0.14400
C618        C  0.54856078  0.15402899  0.16932424    -0.29500
H619        H  0.53810760  0.15013135  0.11309706     0.14600
H620        H  0.56886338  0.14411795  0.19129188     0.15200
C621        C  0.49686243  0.34974704  0.16647463    -0.14400
C622        C  0.52038124  0.31336383  0.17569419    -0.29500
H623        H  0.46415782  0.34507313  0.16283911     0.14600
H624        H  0.55325954  0.31772068  0.17667772     0.15200
loop_ 
_geom_bond_atom_site_label_1 
_geom_bond_atom_site_label_2 
_geom_bond_distance 
_geom_bond_site_symmetry_2 
_ccdc_geom_bond_type 
N1            C5   1.362       .  A
N1            C2   1.362       .  A
N1           N32   1.429       .  S
C2            C3   1.382   1_455  A
C2          C306   1.492       .  S
C3            C4   1.371       .  A
C3            H6   1.082       .  S
C4            C5   1.387   1_655  A
C4            H7   1.082       .  S
C5          C310   1.480       .  S
N8           C12   1.346       .  A
N8            N9   1.324       .  A
N8          Cu16   2.091       .  S
N9           C10   1.345       .  A
N9          Cu15   2.073       .  S
C10          C11   1.385       .  A
C10          H13   1.081       .  S
C11          C12   1.385       .  A
C11         C302   1.480       .  S
C12          H14   1.083       .  S
Cu15         N18   2.072       .  S
Cu16         N26   2.089       .  S
Cu17         N19   2.065       .  S
Cu17         N25   2.066       .  S
N18          C22   1.345       .  A
N18          N19   1.321       .  A
N19          C20   1.343       .  A
C20          C21   1.380       .  A
C20          H23   1.082   1_455  S
C21          C22   1.386       .  A
C21         C309   1.472   1_455  S
C22          H24   1.082       .  S
N25          C29   1.344   1_554  A
N25          N26   1.322       .  A
N26          C27   1.348   1_554  A
C27          C28   1.387       .  A
C27          H30   1.082       .  S
C28          C29   1.381       .  A
C28         C121   1.474       .  S
C29          H31   1.083       .  S
N32          C36   1.363       .  A
N32         C345   1.357       .  A
C33         N344   1.359       .  A
C33          C34   1.382       .  A
C33         C294   1.486       .  S
C34          C35   1.371       .  A
C34          H37   1.082       .  S
C35         C348   1.382       .  A
C35          H38   1.083       .  S
C36         C347   1.383       .  A
C36         C297   1.482       .  S
N39          C43   1.348       .  A
N39          N40   1.323       .  A
N39         Cu47   2.100       .  S
N40          C41   1.345       .  A
N40         Cu46   2.069       .  S
C41          C42   1.385       .  A
C41          H44   1.081       .  S
C42          C43   1.388       .  A
C42         C289   1.484       .  S
C43          H45   1.083       .  S
Cu46         N49   2.067       .  S
Cu47        N369   2.099       .  S
Cu48         N50   2.063       .  S
Cu48         N56   2.063       .  S
N49          C53   1.345       .  A
N49         N362   1.320       .  A
N50          C51   1.344   1_655  A
N50         N361   1.321       .  A
C51         C364   1.382   1_455  A
C51          H54   1.080       .  S
C52          C53   1.381       .  A
C52         C363   1.383       .  A
C52         C610   1.468       .  S
C53          H55   1.082       .  S
N56          C60   1.340       .  A
N56          N57   1.322       .  A
N57          C58   1.351       .  A
N57        Cu359   2.095       .  S
C58          C59   1.390       .  A
C58          H61   1.082       .  S
C59          C60   1.379       .  A
C59          C90   1.475       .  S
C60          H62   1.083   1_655  S
N63          C67   1.363       .  A
N63          C64   1.361       .  A
N63          N94   1.424       .  S
C64          C65   1.384       .  A
C64         C281   1.497       .  S
C65          C66   1.372   1_455  A
C65          H68   1.083       .  S
C66          C67   1.381   1_655  A
C66          H69   1.083       .  S
C67         C285   1.481       .  S
N70          C74   1.340       .  A
N70          N71   1.323       .  A
N70         Cu78   2.070       .  S
N71          C72   1.355       .  A
N71         Cu77   2.102       .  S
C72          C73   1.391       .  A
C72          H75   1.082       .  S
C73          C74   1.378       .  A
C73         C277   1.478       .  S
C74          H76   1.082       .  S
Cu77         N80   2.104       .  S
Cu78         N88   2.069       .  S
Cu79         N81   2.068       .  S
Cu79         N87   2.068       .  S
N80          C84   1.348       .  A
N80          N81   1.325       .  A
N81          C82   1.345       .  A
C82          C83   1.380       .  A
C82          H85   1.081   1_455  S
C83          C84   1.386       .  A
C83         C286   1.478       .  S
C84          H86   1.082       .  S
N87          C91   1.348   1_455  A
N87          N88   1.320       .  A
N88          C89   1.342       .  A
C89          C90   1.384   1_455  A
C89          H92   1.083       .  S
C90          C91   1.385       .  A
C91          H93   1.082       .  S
N94          C98   1.360       .  A
N94          C95   1.360       .  A
C95         C408   1.385       .  A
C95         C581   1.497       .  S
C96          C97   1.372       .  A
C96         C407   1.386       .  A
C96          H99   1.082       .  S
C97         C410   1.383       .  A
C97         H100   1.083       .  S
C98         C409   1.384       .  A
C98         C273   1.484       .  S
N101        C105   1.342       .  A
N101        N102   1.324       .  A
N101       Cu109   2.073       .  S
N102        C103   1.354       .  A
N102       Cu108   2.104       .  S
C103        C104   1.388       .  A
C103        H106   1.081       .  S
C104        C105   1.378       .  A
C104        C265   1.478       .  S
C105        H107   1.082       .  S
Cu108       N111   2.104       .  S
Cu109       N431   2.071       .  S
Cu110       N112   2.062       .  S
Cu110       N118   2.062       .  S
N111        C115   1.352       .  A
N111        N424   1.325       .  A
N112        C113   1.340       .  A
N112        N423   1.325       .  A
C113        C114   1.374       .  A
C113        H116   1.083       .  S
C114        C427   1.393       .  A
C114        C274   1.479       .  S
C115        C426   1.391       .  A
C115        H117   1.082       .  S
N118        C122   1.345       .  A
N118        N119   1.318       .  A
N119        C120   1.345       .  A
N119       Cu421   2.069   1_455  S
C120        C121   1.386       .  A
C120        H123   1.082   1_455  S
C121        C122   1.383       .  A
C122        H124   1.082       .  S
N125        C129   1.363       .  A
N125        C126   1.363       .  A
N125        N156   1.426       .  S
C126        C127   1.383       .  A
C126        C278   1.499       .  S
C127        C128   1.370       .  A
C127        H130   1.082       .  S
C128        C129   1.387       .  A
C128        H131   1.082       .  S
C129        C262   1.488       .  S
N132        C136   1.340   1_545  A
N132        N133   1.326       .  A
N132       Cu140   2.081       .  S
N133        C134   1.356       .  A
N133       Cu139   2.110       .  S
C134        C135   1.391   1_545  A
C134        H137   1.082       .  S
C135        C136   1.379       .  A
C135        C282   1.481       .  S
C136        H138   1.082       .  S
Cu139       N142   2.108       .  S
Cu140       N150   2.078       .  S
Cu141       N143   2.066       .  S
Cu141       N149   2.065       .  S
N142        C146   1.353       .  A
N142        N143   1.324       .  A
N143        C144   1.342       .  A
C144        C145   1.378       .  A
C144        H147   1.083       .  S
C145        C146   1.393       .  A
C145        C261   1.482       .  S
C146        H148   1.082       .  S
N149        C153   1.341       .  A
N149        N150   1.319       .  A
N150        C151   1.350   1_545  A
C151        C152   1.387   1_565  A
C151        H154   1.082       .  S
C152        C153   1.383       .  A
C152        C245   1.475       .  S
C153        H155   1.082       .  S
N156        C160   1.364       .  A
N156        C157   1.363       .  A
C157        C158   1.377       .  A
C157        C266   1.485       .  S
C158        C159   1.372       .  A
C158        H161   1.082       .  S
C159        C160   1.383       .  A
C159        H162   1.082       .  S
C160        C257   1.481       .  S
N163        C167   1.341   1_545  A
N163        N164   1.325       .  A
N163       Cu171   2.087       .  S
N164        C165   1.356       .  A
N164       Cu170   2.101       .  S
C165        C166   1.390   1_545  A
C165        H168   1.082       .  S
C166        C167   1.380       .  A
C166        C270   1.482       .  S
C167        H169   1.082       .  S
Cu170       N173   2.101       .  S
Cu171       N181   2.086       .  S
Cu172       N174   2.083       .  S
Cu172       N180   2.084       .  S
N173        C177   1.350       .  A
N173        N174   1.325       .  A
N174        C175   1.345       .  A
C175        C176   1.383       .  A
C175        H178   1.081       .  S
C176        C177   1.387       .  A
C176        C258   1.481       .  S
C177        H179   1.083       .  S
N180        C184   1.345       .  A
N180        N181   1.321       .  A
N181        C182   1.351       .  A
C182        C183   1.389       .  A
C182        H185   1.082   1_545  S
C183        C184   1.387       .  A
C183        C214   1.485       .  S
C184        H186   1.083       .  S
N187        C191   1.361       .  A
N187        C188   1.358       .  A
N187        N218   1.424       .  S
C188        C189   1.383       .  A
C188        C301   1.479       .  S
C189        C190   1.377       .  A
C189        H192   1.083       .  S
C190        C191   1.383       .  A
C190        H193   1.082       .  S
C191        C253   1.495       .  S
N194        C198   1.346       .  A
N194        N195   1.320       .  A
N194       Cu202   2.079       .  S
N195        C196   1.346       .  A
N195       Cu201   2.065       .  S
C196        C197   1.385       .  A
C196        H199   1.082       .  S
C197        C198   1.385       .  A
C197        C305   1.478       .  S
C198        H200   1.082       .  S
Cu201       N204   2.067   1_545  S
Cu202       N212   2.080       .  S
Cu203       N205   2.116       .  S
Cu203       N211   2.117       .  S
N204        C208   1.342       .  A
N204        N205   1.324       .  A
N205        C206   1.355       .  A
C206        C207   1.394       .  A
C206        H209   1.083       .  S
C207        C208   1.377       .  A
C207        C254   1.484       .  S
C208        H210   1.082       .  S
N211        C215   1.354       .  A
N211        N212   1.326   1_565  A
N212        C213   1.344   1_554  A
C213        C214   1.381       .  A
C213        H216   1.083       .  S
C214        C215   1.392   1_546  A
C215        H217   1.082       .  S
N218        C222   1.355       .  A
N218        C219   1.360       .  A
C219        C220   1.384       .  A
C219        C290   1.481       .  S
C220        C221   1.376       .  A
C220        H223   1.083       .  S
C221        C222   1.381       .  A
C221        H224   1.083       .  S
C222        C249   1.481       .  S
N225        C229   1.343       .  A
N225        N226   1.320       .  A
N225       Cu233   2.063       .  S
N226        C227   1.344       .  A
N226       Cu232   2.061   1_545  S
C227        C228   1.384       .  A
C227        H230   1.082       .  S
C228        C229   1.381       .  A
C228        C293   1.472       .  S
C229        H231   1.082       .  S
Cu232       N235   2.061       .  S
Cu233       N243   2.063       .  S
Cu234       N236   2.093       .  S
Cu234       N242   2.092       .  S
N235        C239   1.342       .  A
N235        N236   1.324       .  A
N236        C237   1.347       .  A
C237        C238   1.390       .  A
C237        H240   1.082       .  S
C238        C239   1.376       .  A
C238        C250   1.476       .  S
C239        H241   1.082       .  S
N242        C246   1.351       .  A
N242        N243   1.323   1_565  A
N243        C244   1.340       .  A
C244        C245   1.380       .  A
C244        H247   1.082       .  S
C245        C246   1.388   1_545  A
C246        H248   1.082       .  S
C249        C250   1.338       .  D
C249        H251   1.084       .  S
C250        H252   1.085       .  S
C253        C254   1.343       .  D
C253        H255   1.085       .  S
C254        H256   1.086       .  S
C257        C258   1.346       .  D
C257        H259   1.087       .  S
C258        H260   1.087       .  S
C261        C262   1.345       .  D
C261        H263   1.087       .  S
C262        H264   1.085       .  S
C265        C266   1.342       .  D
C265        H267   1.087       .  S
C266        H268   1.088       .  S
C269        C407   1.500       .  S
C269        C270   1.352       .  D
C269        H271   1.085       .  S
C270        H272   1.086       .  S
C273        C274   1.341       .  D
C273        H587   1.084       .  S
C274        H276   1.086       .  S
H275        C585   1.085       .  S
C277        C278   1.350       .  D
C277        H279   1.085       .  S
C278        H280   1.084       .  S
C281        C282   1.351       .  D
C281        H283   1.085       .  S
C282        H284   1.087       .  S
C285        C286   1.347       .  D
C285        H287   1.087   1_455  S
C286        H288   1.087       .  S
C289        C290   1.349       .  D
C289        H291   1.087       .  S
C290        H292   1.084       .  S
C293        C294   1.345       .  D
C293        H295   1.085       .  S
C294        H296   1.081       .  S
C297        C298   1.343       .  D
C297        H299   1.087       .  S
C298        C364   1.470   1_455  S
C298        H612   1.086   1_455  S
H300        C610   1.086       .  S
C301        C302   1.347       .  D
C301        H303   1.085       .  S
C302        H304   1.087       .  S
C305        C306   1.348       .  D
C305        H307   1.086       .  S
C306        H308   1.081       .  S
C309        C310   1.342   1_655  D
C309        H311   1.086       .  S
C310        H312   1.085       .  S
N313        C317   1.360       .  A
N313        C314   1.359       .  A
N313        N344   1.430       .  S
C314        C315   1.384       .  A
C314        C618   1.488       .  S
C315        C316   1.372       .  A
C315        H318   1.081       .  S
C316        C317   1.385       .  A
C316        H319   1.082       .  S
C317        C622   1.473       .  S
N320        C324   1.347       .  A
N320        N321   1.323       .  A
N320       Cu328   2.092       .  S
N321        C322   1.346       .  A
N321       Cu327   2.073       .  S
C322        C323   1.385       .  A
C322        H325   1.081       .  S
C323        C324   1.386       .  A
C323        C614   1.481       .  S
C324        H326   1.083       .  S
Cu327       N330   2.073       .  S
Cu328       N338   2.091       .  S
Cu329       N331   2.059       .  S
Cu329       N337   2.061       .  S
N330        C334   1.345       .  A
N330        N331   1.320       .  A
N331        C332   1.343       .  A
C332        C333   1.378       .  A
C332        H335   1.081       .  S
C333        C334   1.387       .  A
C333        C621   1.470       .  S
C334        H336   1.081       .  S
N337        C341   1.342   1_554  A
N337        N338   1.323       .  A
N338        C339   1.348   1_554  A
C339        C340   1.387       .  A
C339        H342   1.082       .  S
C340        C341   1.380       .  A
C340        C433   1.473       .  S
C341        H343   1.083       .  S
N344        C348   1.365       .  A
C345        C346   1.383       .  A
C345        C606   1.488       .  S
C346        C347   1.372       .  A
C346        H349   1.082       .  S
C347        H350   1.083       .  S
C348        C609   1.477       .  S
N351        C355   1.347       .  A
N351        N352   1.324       .  A
N351       Cu359   2.097       .  S
N352        C353   1.347       .  A
N352       Cu358   2.078       .  S
C353        C354   1.387       .  A
C353        H356   1.081       .  S
C354        C355   1.386       .  A
C354        C601   1.484       .  S
C355        H357   1.082       .  S
Cu358       N361   2.075       .  S
Cu360       N362   2.067       .  S
Cu360       N368   2.069       .  S
N361        C365   1.346       .  A
N362        C363   1.344       .  A
C363        H366   1.080       .  S
C364        C365   1.382       .  A
C365        H367   1.082       .  S
N368        C372   1.343       .  A
N368        N369   1.323       .  A
N369        C370   1.350       .  A
C370        C371   1.389       .  A
C370        H373   1.082       .  S
C371        C372   1.380       .  A
C371        C402   1.476       .  S
C372        H374   1.083       .  S
N375        C379   1.362       .  A
N375        C376   1.361       .  A
N375        N406   1.425       .  S
C376        C377   1.385       .  A
C376        C593   1.497       .  S
C377        C378   1.372       .  A
C377        H380   1.082       .  S
C378        C379   1.381       .  A
C378        H381   1.083       .  S
C379        C597   1.482       .  S
N382        C386   1.342       .  A
N382        N383   1.324       .  A
N382       Cu390   2.083       .  S
N383        C384   1.356       .  A
N383       Cu389   2.110       .  S
C384        C385   1.392       .  A
C384        H387   1.082       .  S
C385        C386   1.379       .  A
C385        C589   1.484       .  S
C386        H388   1.082       .  S
Cu389       N392   2.112       .  S
Cu390       N400   2.083       .  S
Cu391       N393   2.059       .  S
Cu391       N399   2.060       .  S
N392        C396   1.352       .  A
N392        N393   1.324       .  A
N393        C394   1.341       .  A
C394        C395   1.377       .  A
C394        H397   1.081       .  S
C395        C396   1.389       .  A
C395        C598   1.478       .  S
C396        H398   1.082       .  S
N399        C403   1.346       .  A
N399        N400   1.320       .  A
N400        C401   1.346       .  A
C401        C402   1.388       .  A
C401        H404   1.083       .  S
C402        C403   1.383       .  A
C403        H405   1.082       .  S
N406        C410   1.362       .  A
N406        C407   1.362       .  A
C408        C409   1.373       .  A
C408        H411   1.082       .  S
C409        H412   1.082       .  S
C410        C585   1.482       .  S
N413        C417   1.341       .  A
N413        N414   1.325       .  A
N413       Cu421   2.070       .  S
N414        C415   1.354       .  A
N414       Cu420   2.110       .  S
C415        C416   1.389       .  A
C415        H418   1.081       .  S
C416        C417   1.376       .  A
C416        C577   1.476       .  S
C417        H419   1.082       .  S
Cu420       N423   2.110   1_655  S
Cu422       N424   2.060       .  S
Cu422       N430   2.060       .  S
N423        C427   1.353       .  A
N424        C425   1.340       .  A
C425        C426   1.375       .  A
C425        H428   1.083       .  S
C426        C586   1.478       .  S
C427        H429   1.082       .  S
N430        C434   1.346       .  A
N430        N431   1.319       .  A
N431        C432   1.344       .  A
C432        C433   1.386       .  A
C432        H435   1.082       .  S
C433        C434   1.383       .  A
C434        H436   1.082       .  S
N437        C441   1.363       .  A
N437        C438   1.365       .  A
N437        N468   1.426       .  S
C438        C439   1.386       .  A
C438        C590   1.506       .  S
C439        C440   1.373       .  A
C439        H442   1.081       .  S
C440        C441   1.385       .  A
C440        H443   1.082       .  S
C441        C574   1.490       .  S
N444        C448   1.341   1_545  A
N444        N445   1.326       .  A
N444       Cu452   2.084       .  S
N445        C446   1.356       .  A
N445       Cu451   2.107       .  S
C446        C447   1.390   1_545  A
C446        H449   1.082       .  S
C447        C448   1.379       .  A
C447        C594   1.481       .  S
C448        H450   1.082       .  S
Cu451       N454   2.107       .  S
Cu452       N462   2.082       .  S
Cu453       N455   2.069       .  S
Cu453       N461   2.068       .  S
N454        C458   1.354       .  A
N454        N455   1.324       .  A
N455        C456   1.341       .  A
C456        C457   1.377       .  A
C456        H459   1.083       .  S
C457        C458   1.393       .  A
C457        C573   1.481       .  S
C458        H460   1.082       .  S
N461        C465   1.343       .  A
N461        N462   1.319       .  A
N462        C463   1.350   1_545  A
C463        C464   1.388   1_565  A
C463        H466   1.082       .  S
C464        C465   1.384       .  A
C464        C557   1.477       .  S
C465        H467   1.082       .  S
N468        C472   1.361       .  A
N468        C469   1.360       .  A
C469        C470   1.377       .  A
C469        C578   1.487       .  S
C470        C471   1.374       .  A
C470        H473   1.083       .  S
C471        C472   1.387       .  A
C471        H474   1.083       .  S
C472        C569   1.486       .  S
N475        C479   1.342   1_545  A
N475        N476   1.326       .  A
N475       Cu483   2.084       .  S
N476        C477   1.354       .  A
N476       Cu482   2.103       .  S
C477        C478   1.388   1_545  A
C477        H480   1.082       .  S
C478        C479   1.380       .  A
C478        C582   1.480   1_655  S
C479        H481   1.082       .  S
Cu482       N485   2.103       .  S
Cu483       N493   2.081       .  S
Cu484       N486   2.061       .  S
Cu484       N492   2.062       .  S
N485        C489   1.353       .  A
N485        N486   1.323       .  A
N486        C487   1.340       .  A
C487        C488   1.375       .  A
C487        H490   1.082       .  S
C488        C489   1.393       .  A
C488        C570   1.478       .  S
C489        H491   1.082       .  S
N492        C496   1.343       .  A
N492        N493   1.319       .  A
N493        C494   1.349       .  A
C494        C495   1.387       .  A
C494        H497   1.082   1_545  S
C495        C496   1.384       .  A
C495        C526   1.476       .  S
C496        H498   1.082       .  S
N499        C503   1.360       .  A
N499        C500   1.359       .  A
N499        N530   1.426       .  S
C500        C501   1.384       .  A
C500        C613   1.480       .  S
C501        C502   1.376       .  A
C501        H504   1.083       .  S
C502        C503   1.381       .  A
C502        H505   1.082       .  S
C503        C565   1.487       .  S
N506        C510   1.344       .  A
N506        N507   1.320       .  A
N506       Cu514   2.071       .  S
N507        C508   1.344       .  A
N507       Cu513   2.063       .  S
C508        C509   1.384       .  A
C508        H511   1.082       .  S
C509        C510   1.383       .  A
C509        C617   1.474       .  S
C510        H512   1.082       .  S
Cu513       N516   2.064   1_545  S
Cu514       N524   2.070       .  S
Cu515       N517   2.097       .  S
Cu515       N523   2.096       .  S
N516        C520   1.342       .  A
N516        N517   1.323       .  A
N517        C518   1.349       .  A
C518        C519   1.391       .  A
C518        H521   1.082       .  S
C519        C520   1.378       .  A
C519        C566   1.480       .  S
C520        H522   1.082       .  S
N523        C527   1.351       .  A
N523        N524   1.323   1_565  A
N524        C525   1.342   1_554  A
C525        C526   1.381       .  A
C525        H528   1.082       .  S
C526        C527   1.388   1_546  A
C527        H529   1.082       .  S
N530        C534   1.358       .  A
N530        C531   1.360       .  A
C531        C532   1.384       .  A
C531        C602   1.483       .  S
C532        C533   1.376       .  A
C532        H535   1.082       .  S
C533        C534   1.381       .  A
C533        H536   1.083       .  S
C534        C561   1.482       .  S
N537        C541   1.344       .  A
N537        N538   1.321       .  A
N537       Cu545   2.074       .  S
N538        C539   1.346       .  A
N538       Cu544   2.067   1_545  S
C539        C540   1.384       .  A
C539        H542   1.082       .  S
C540        C541   1.382       .  A
C540        C605   1.474   1_655  S
C541        H543   1.083       .  S
Cu544       N547   2.067       .  S
Cu545       N555   2.075       .  S
Cu546       N548   2.088       .  S
Cu546       N554   2.089       .  S
N547        C551   1.344       .  A
N547        N548   1.323       .  A
N548        C549   1.347       .  A
C549        C550   1.390       .  A
C549        H552   1.080       .  S
C550        C551   1.379       .  A
C550        C562   1.479       .  S
C551        H553   1.082       .  S
N554        C558   1.350       .  A
N554        N555   1.323   1_565  A
N555        C556   1.343       .  A
C556        C557   1.382       .  A
C556        H559   1.082       .  S
C557        C558   1.387   1_545  A
C558        H560   1.082       .  S
C561        C562   1.341       .  D
C561        H563   1.084       .  S
C562        H564   1.086       .  S
C565        C566   1.341       .  D
C565        H567   1.085       .  S
C566        H568   1.086       .  S
C569        C570   1.341       .  D
C569        H571   1.085       .  S
C570        H572   1.087       .  S
C573        C574   1.344       .  D
C573        H575   1.087       .  S
C574        H576   1.086       .  S
C577        C578   1.344       .  D
C577        H579   1.087       .  S
C578        H580   1.087       .  S
C581        C582   1.351       .  D
C581        H583   1.085       .  S
C582        H584   1.085       .  S
C585        C586   1.341       .  D
C586        H588   1.087       .  S
C589        C590   1.350       .  D
C589        H591   1.083       .  S
C590        H592   1.083       .  S
C593        C594   1.351       .  D
C593        H595   1.085       .  S
C594        H596   1.086       .  S
C597        C598   1.349       .  D
C597        H599   1.087       .  S
C598        H600   1.087       .  S
C601        C602   1.348       .  D
C601        H603   1.087       .  S
C602        H604   1.085       .  S
C605        C606   1.346       .  D
C605        H607   1.085       .  S
C606        H608   1.083       .  S
C609        C610   1.342       .  D
C609        H611   1.087       .  S
C613        C614   1.347       .  D
C613        H615   1.085       .  S
C614        H616   1.087       .  S
C617        C618   1.347       .  D
C617        H619   1.086       .  S
C618        H620   1.082       .  S
C621        C622   1.339       .  D
C621        H623   1.087       .  S
C622        H624   1.086       .  S
