geometry optimzed in LAMMPS
_audit_creation_date              2020-11-30 
_audit_creation_method            'lammps2cif' 
_symmetry_space_group_name_H-M    'P1' 
_symmetry_Int_Tables_number       1 
_symmetry_cell_setting            triclinic 
loop_ 
_symmetry_equiv_pos_as_xyz 
  x,y,z 
_cell_length_a                    40.30275947 
_cell_length_b                    39.70288706718628 
_cell_length_c                    50.09012470285059 
_cell_angle_alpha                 90.43937889151286 
_cell_angle_beta                  89.49553654683925 
_cell_angle_gamma                 120.02852370009413 
loop_ 
_atom_site_label 
_atom_site_type_symbol 
_atom_site_fract_x 
_atom_site_fract_y 
_atom_site_fract_z 
_atom_site_charge 
C1          C  0.00242621  0.82286633  0.72120297     0.87300
C2          C  0.96964771  0.83192919  0.72451683    -0.53000
C3          C  0.97247768  0.85448573  0.74641714     0.10200
C4          C  0.00747240  0.86325329  0.76410005     0.21100
C5          C  0.03895409  0.86399755  0.72211679    -0.53700
C6          C  0.04150225  0.88524385  0.74468938     0.10300
C7          C  0.00278463  0.80358372  0.74704705    -0.53200
C8          C  0.00533169  0.82382127  0.76943030     0.10900
H9          H  0.94866396  0.82423885  0.70890466     0.15400
H10         H  0.01015866  0.87946119  0.78278668     0.01100
H11         H  0.05856054  0.87683554  0.70541494     0.15700
H12         H  0.00161749  0.77560834  0.74764342     0.15500
C13         C  0.93069418  0.91873408  0.72386200     0.87300
C14         C  0.97349576  0.95128593  0.72481786    -0.53000
C15         C  0.99306945  0.94980237  0.74677299     0.10200
C16         C  0.96793023  0.91561172  0.76557491     0.21100
C17         C  0.93308037  0.88110934  0.72563749    -0.53700
C18         C  0.95387931  0.87960217  0.74693764     0.10300
C19         C  0.91369289  0.92102873  0.75048548    -0.53200
C20         C  0.93237925  0.91941274  0.77222681     0.10900
H21         H  0.98773828  0.97126137  0.70842753     0.15400
H22         H  0.98304834  0.91506902  0.78375847     0.01100
H23         H  0.92335756  0.86021995  0.70953144     0.15700
H24         H  0.88821729  0.92378952  0.75211329     0.15500
C25         C  0.09677870  0.99051566  0.77124801     0.87300
C26         C  0.05684356  0.98763623  0.76994703    -0.53000
C27         C  0.03584872  0.96872731  0.74760546     0.10200
C28         C  0.05704205  0.95503226  0.72848760     0.21100
C29         C  0.08638429  0.94739324  0.76861743    -0.53700
C30         C  0.06556656  0.92863375  0.74626876     0.10300
C31         C  0.11632911  0.00941542  0.74495305    -0.53200
C32         C  0.09616253  0.99143424  0.72272391     0.10900
H33         H  0.04419264  0.99518635  0.78645194     0.15400
H34         H  0.04050832  0.94026916  0.71023991     0.01100
H35         H  0.09175895  0.93213068  0.78437497     0.15700
H36         H  0.14424813  0.03573466  0.74395907     0.15500
In37       In  0.69342625  0.57698324  0.05626542     1.36900
C38         C  0.74432462  0.61926954  0.09393247     0.78300
O39         O  0.70923674  0.53072725  0.05094679    -0.60100
O40         O  0.72154877  0.57200087  0.01994269    -0.51000
C41         C  0.62255157  0.51973802  0.04673514     0.71000
O42         O  0.64148976  0.51786969  0.06626933    -0.45900
C43         C  0.68867199  0.63612776  0.03927393     0.75700
O44         O  0.70908650  0.59717596  0.09955955    -0.57700
O45         O  0.70620969  0.62208837  0.02650020    -0.47800
O46         O  0.75299600  0.61614821  0.07020047    -0.54200
C47         C  0.72191052  0.54194928  0.02756583     0.85900
O48         O  0.63819800  0.55199606  0.03506244    -0.56000
O49         O  0.67305021  0.61928493  0.06099894    -0.59300
In50       In  0.00317484  0.58186039  0.93321826     1.36900
C51         C  0.00082421  0.62989561  0.89786947     0.78300
O52         O  0.94273899  0.53565641  0.92372345    -0.60100
O53         O  0.95523170  0.57165768  0.95866690    -0.51000
C54         C  0.01414354  0.52779094  0.95517267     0.71000
O55         O  0.00884587  0.55207494  0.96815906    -0.45900
C56         C  0.06822553  0.63584233  0.95198205     0.75700
O57         O  0.00742468  0.60289380  0.89048476    -0.57700
O58         O  0.03632626  0.62628511  0.96304370    -0.47800
O59         O  0.99444631  0.63043756  0.92256761    -0.54200
C60         C  0.93044506  0.54349911  0.94495229     0.85900
O61         O  0.01395019  0.53089648  0.92977224    -0.56000
O62         O  0.06671544  0.61813899  0.93039301    -0.59300
In63       In  0.69808499  0.92882062  0.93806576     1.36900
C64         C  0.74868911  0.93171628  0.90192952     0.78300
O65         O  0.71333224  0.99032566  0.92939601    -0.60100
O66         O  0.73123978  0.97658647  0.96589041    -0.51000
C67         C  0.63020943  0.91684524  0.95409315     0.71000
O68         O  0.63663744  0.91489581  0.92927297    -0.45900
C69         C  0.69052860  0.86682414  0.96117732     0.75700
O70         O  0.71423816  0.92090969  0.89542994    -0.57700
O71         O  0.71280413  0.90077758  0.96981910    -0.47800
O72         O  0.75634976  0.94195366  0.92602111    -0.54200
C73         C  0.72998677  0.00211701  0.95170860     0.85900
O74         O  0.65758806  0.92326632  0.96920264    -0.56000
O75         O  0.67211804  0.86477417  0.94028565    -0.59300
In76       In  0.00070778  0.23503549  0.06280979     1.36900
C77         C  0.98921565  0.18533984  0.10307441     0.78300
O78         O  0.93948822  0.21865727  0.05732853    -0.60100
O79         O  0.96818032  0.20657932  0.02602307    -0.51000
C80         C  0.01763925  0.30818695  0.05330127     0.71000
O81         O  0.99461793  0.28834010  0.07185169    -0.45900
C82         C  0.06166101  0.23563899  0.04407827     0.75700
O83         O  0.00613304  0.22190920  0.10672892    -0.57700
O84         O  0.03047560  0.22112433  0.03142361    -0.47800
O85         O  0.97540830  0.17500333  0.08001596    -0.54200
C86         C  0.93798832  0.20582799  0.03391454     0.85900
O87         O  0.03498037  0.29245646  0.04292462    -0.56000
O88         O  0.06156888  0.24972278  0.06682081    -0.59300
In89       In  0.34199462  0.21872477  0.94580895     1.36900
C90         C  0.30282842  0.17341790  0.90365077     0.78300
O91         O  0.38256353  0.19705270  0.95277480    -0.60100
O92         O  0.34436661  0.19233032  0.98414745    -0.51000
C93         C  0.40204246  0.29095531  0.95350278     0.71000
O94         O  0.40347466  0.26776939  0.93658425    -0.45900
C95         C  0.28315079  0.22168374  0.96550072     0.75700
O96         O  0.32038327  0.21021697  0.90270681    -0.57700
O97         O  0.29291593  0.19800297  0.97399150    -0.47800
O98         O  0.30930858  0.16053642  0.92465493    -0.54200
C99         C  0.37187445  0.18774972  0.97672186     0.85900
O100        O  0.36942956  0.27842046  0.96378773    -0.56000
O101        O  0.30379306  0.24376248  0.94691112    -0.59300
In102      In  0.34497752  0.91282498  0.06821213     1.36900
C103        C  0.29691903  0.91658959  0.10324286     0.78300
O104        O  0.38888828  0.97270028  0.08149558    -0.60100
O105        O  0.36042814  0.96321335  0.04371068    -0.51000
C106        C  0.40128876  0.90403773  0.04863586     0.71000
O107        O  0.39216482  0.89738973  0.07334922    -0.45900
C108        C  0.29288503  0.85206815  0.04309538     0.75700
O109        O  0.32057527  0.90589795  0.11049857    -0.57700
O110        O  0.30340785  0.88648232  0.03600217    -0.47800
O111        O  0.29878375  0.92480018  0.07880292    -0.54200
C112        C  0.38496827  0.98698567  0.05996169     0.85900
O113        O  0.38119189  0.91397656  0.03534441    -0.56000
O114        O  0.30872436  0.84878114  0.06392650    -0.59300
C115        C  0.92516098  0.81786216  0.27346397     0.87300
C116        C  0.96703310  0.82622071  0.27285202    -0.53000
C117        C  0.98826589  0.84685500  0.25082346     0.10200
C118        C  0.96352995  0.85432183  0.23066491     0.21100
C119        C  0.93004577  0.85879393  0.26998637    -0.53700
C120        C  0.95008218  0.87796112  0.24754924     0.10300
C121        C  0.90780112  0.79619373  0.24770023    -0.53200
C122        C  0.92712177  0.81452920  0.22535971     0.10900
H123        H  0.97942209  0.82036369  0.29005424     0.15400
H124        H  0.97822124  0.86905495  0.21192957     0.01100
H125        H  0.92263978  0.87322892  0.28555034     0.15700
H126        H  0.88149833  0.76844782  0.24707273     0.15500
C127        C  0.00228305  0.98325903  0.22185845     0.87300
C128        C  0.03881684  0.97954585  0.22384849    -0.53000
C129        C  0.03981524  0.96000657  0.24617695     0.10200
C130        C  0.00424529  0.94651695  0.26455404     0.21100
C131        C  0.96960806  0.94032132  0.22346299    -0.53700
C132        C  0.97057337  0.92111031  0.24578421     0.10300
C133        C  0.00044924  0.00175326  0.24813951    -0.53200
C134        C  0.00106365  0.98306639  0.27039227     0.10900
H135        H  0.05960354  0.98758900  0.20784520     0.15400
H136        H  0.00483381  0.93099392  0.28274360     0.01100
H137        H  0.94973177  0.92539004  0.20715663     0.15700
H138        H  0.99736094  0.02754525  0.24909944     0.15500
C139        C  0.09331051  0.91112524  0.27476294     0.87300
C140        C  0.08491869  0.94480491  0.27062394    -0.53000
C141        C  0.06445222  0.94161160  0.24800105     0.10200
C142        C  0.05508935  0.90505789  0.23119900     0.21100
C143        C  0.05287991  0.87443489  0.27367869    -0.53700
C144        C  0.03176501  0.87137320  0.25127247     0.10300
C145        C  0.11261822  0.90882313  0.24922575    -0.53200
C146        C  0.09378821  0.90606836  0.22647095     0.10900
H147        H  0.09065226  0.96662766  0.28596957     0.15400
H148        H  0.04043885  0.90339776  0.21224909     0.01100
H149        H  0.04063812  0.85489933  0.29048446     0.15700
H150        H  0.14013238  0.90985275  0.24907230     0.15500
In151      In  0.67202326  0.57697070  0.43509182     1.36900
C152        C  0.72178264  0.61940922  0.39736240     0.78300
O153        O  0.65539913  0.62247326  0.43168243    -0.60100
O154        O  0.68514025  0.62059947  0.46628950    -0.51000
C155        C  0.60065463  0.52444907  0.44808372     0.71000
O156        O  0.61327165  0.52537542  0.42454534    -0.45900
C157        C  0.70712996  0.54195430  0.45464012     0.75700
O158        O  0.68643812  0.59759310  0.39196185    -0.57700
O159        O  0.70559911  0.56941881  0.46630586    -0.47800
O160        O  0.73052928  0.61710228  0.42107423    -0.54200
C161        C  0.66999857  0.63718323  0.45406667     0.85900
O162        O  0.62422207  0.55018769  0.46356672    -0.56000
O163        O  0.68996282  0.53169623  0.43242993    -0.59300
In164      In  0.98603589  0.56293791  0.55983699     1.36900
C165        C  0.97924865  0.60781639  0.59717963     0.78300
O166        O  0.04854815  0.60512328  0.56396957    -0.60100
O167        O  0.01938389  0.60611805  0.52877033    -0.51000
C168        C  0.99279110  0.49974619  0.55397856     0.71000
O169        O  0.97213444  0.50216641  0.57225001    -0.45900
C170        C  0.92068016  0.53298157  0.53378887     0.75700
O171        O  0.99081487  0.58427686  0.60296992    -0.57700
O172        O  0.95265146  0.55587922  0.52307842    -0.47800
O173        O  0.96910053  0.60578076  0.57326668    -0.54200
C174        C  0.05027204  0.62129917  0.54189348     0.85900
O175        O  0.01358899  0.53111011  0.54186118    -0.56000
O176        O  0.92238572  0.52506922  0.55793241    -0.59300
In177      In  0.31243016  0.23901670  0.55257736     1.36900
C178        C  0.27553811  0.18646119  0.59086706     0.78300
O179        O  0.26867644  0.25742133  0.55755405    -0.60100
O180        O  0.26609677  0.22256401  0.52401269    -0.51000
C181        C  0.36670257  0.31057188  0.53920601     0.71000
O182        O  0.36708336  0.29666659  0.56195700    -0.45900
C183        C  0.34734317  0.20876186  0.52569112     0.75700
O184        O  0.29488010  0.22258814  0.59642759    -0.57700
O185        O  0.31689310  0.20718595  0.51794564    -0.47800
O186        O  0.27785290  0.17857491  0.56681734    -0.54200
C187        C  0.25175183  0.24019057  0.53625340     0.85900
O188        O  0.33699307  0.28970715  0.52588389    -0.56000
O189        O  0.35955785  0.22503632  0.54814218    -0.59300
In190      In  0.33366595  0.92351382  0.44916328     1.36900
C191        C  0.28865925  0.92413930  0.41018833     0.78300
O192        O  0.29499007  0.85995492  0.44830216    -0.60100
O193        O  0.28867082  0.89371290  0.47955647    -0.51000
C194        C  0.38582000  0.91048637  0.47291863     0.71000
O195        O  0.38206631  0.90818843  0.44753394    -0.45900
C196        C  0.36708988  0.99771998  0.45891737     0.75700
O197        O  0.31747724  0.91996515  0.40480733    -0.57700
O198        O  0.34097970  0.97223295  0.47350165    -0.47800
O199        O  0.28447418  0.92847203  0.43474611    -0.54200
C200        C  0.27719698  0.86052617  0.46917388     0.85900
O201        O  0.36415398  0.92029971  0.48465212    -0.56000
O202        O  0.37654799  0.98506875  0.43862109    -0.59300
In203      In  0.95201423  0.19880191  0.43230477     1.36900
C204        C  0.95360725  0.15084957  0.39598415     0.78300
O205        O  0.01560532  0.22975215  0.43369125    -0.60100
O206        O  0.98316148  0.18874227  0.46437863    -0.51000
C207        C  0.95752976  0.26286560  0.45275838     0.71000
O208        O  0.96261774  0.26037502  0.42775873    -0.45900
C209        C  0.87811033  0.16082036  0.43792899     0.75700
O210        O  0.96343075  0.18584924  0.39004854    -0.57700
O211        O  0.90025874  0.15608768  0.45329592    -0.47800
O212        O  0.94272581  0.14148290  0.41985775    -0.54200
C213        C  0.01584575  0.21343469  0.45529191     0.85900
O214        O  0.94938986  0.23273658  0.46605588    -0.56000
O215        O  0.89386161  0.18506161  0.41910761    -0.59300
In216      In  0.66851728  0.91542879  0.57567891     1.36900
C217        C  0.72282266  0.92615183  0.61223432     0.78300
O218        O  0.65097566  0.85303951  0.57073365    -0.60100
O219        O  0.68514135  0.89273506  0.54023718    -0.51000
C220        C  0.59531713  0.90012961  0.57645052     0.71000
O221        O  0.62234260  0.93099960  0.58638640    -0.45900
C222        C  0.68931686  0.97518968  0.54370314     0.75700
O223        O  0.68728406  0.90714854  0.61758840    -0.57700
O224        O  0.67891130  0.94128420  0.53540468    -0.47800
O225        O  0.72981897  0.94195665  0.58966776    -0.54200
C226        C  0.66703937  0.85796436  0.54817864     0.85900
O227        O  0.60468503  0.87493316  0.57133078    -0.56000
O228        O  0.69022322  0.97894453  0.56885542    -0.59300
C229        C  0.74224931  0.07545186  0.51398588    -0.27400
C230        C  0.73613697  0.06642276  0.48659397     0.06200
C231        C  0.70781759  0.02875312  0.47890156     0.25800
C232        C  0.69079330  0.99944633  0.49796410    -0.11900
C233        C  0.70060396  0.00760297  0.52501760    -0.25900
C234        C  0.72427177  0.04632677  0.53313541     0.36600
C235        C  0.76578834  0.09228529  0.46716230     0.06200
F236        F  0.69935484  0.01948730  0.45273203    -0.19700
H237        H  0.67150274  0.96993640  0.49136706     0.16000
F238        F  0.73316531  0.05548117  0.55924500    -0.23400
H239        H  0.76388944  0.10409315  0.52062269     0.17800
C240        C  0.78389829  0.13311574  0.46931886     0.25800
C241        C  0.81947551  0.15640132  0.45703202    -0.11900
C242        C  0.83688112  0.13918678  0.44237728    -0.25900
C243        C  0.81715843  0.09906847  0.43784884     0.36700
C244        C  0.78189753  0.07582117  0.45013315    -0.27600
F245        F  0.76885816  0.15023411  0.48501001    -0.19700
H246        H  0.83484169  0.18745870  0.46081462     0.16000
F247        F  0.83374724  0.08200471  0.42372522    -0.23400
H248        H  0.76933010  0.04459619  0.44842944     0.17800
C249        C  0.43573655  0.89622834  0.53270706    -0.27400
C250        C  0.46686650  0.89511417  0.52103866     0.06200
C251        C  0.46973950  0.89580169  0.49290673     0.25800
C252        C  0.44319634  0.89997016  0.47698712    -0.11900
C253        C  0.41279572  0.90270726  0.48881613    -0.25900
C254        C  0.40873681  0.89923986  0.51694494     0.36600
C255        C  0.49670876  0.89450002  0.53836872     0.06200
F256        F  0.49891838  0.89362164  0.48088904    -0.19700
H257        H  0.44687549  0.90182794  0.45550742     0.16000
F258        F  0.37841818  0.89861772  0.52945486    -0.23400
H259        H  0.43231927  0.89477331  0.55421677     0.17800
C260        C  0.52186808  0.92733699  0.55360775     0.25800
C261        C  0.55230274  0.92807929  0.56773577    -0.11900
C262        C  0.55785094  0.89575900  0.56758314    -0.25900
C263        C  0.53047239  0.86168901  0.55420678     0.36700
C264        C  0.50066589  0.86136171  0.53953872    -0.27600
F265        F  0.51815140  0.95947546  0.55375056    -0.19700
H266        H  0.57267010  0.95472799  0.57772061     0.16000
F267        F  0.53341218  0.82909637  0.55423410    -0.23400
H268        H  0.48100855  0.83534894  0.52861951     0.17800
C269        C  0.41272365  0.17062334  0.50513178    -0.27400
C270        C  0.39303243  0.14789990  0.48291836     0.06200
C271        C  0.36239563  0.15072425  0.47228394     0.25800
C272        C  0.34906451  0.17255316  0.48566532    -0.11900
C273        C  0.36612416  0.19181879  0.50965895    -0.25900
C274        C  0.39939759  0.19243368  0.51853895     0.36600
C275        C  0.39631621  0.11352395  0.47672009     0.06200
F276        F  0.34267936  0.12904860  0.45080945    -0.19700
H277        H  0.32386275  0.17234668  0.47809493     0.16000
F278        F  0.41756899  0.21181018  0.54107691    -0.23400
H279        H  0.43632732  0.16854898  0.51352907     0.17800
C280        C  0.40249750  0.10441105  0.45067234     0.25800
C281        C  0.39615239  0.06705742  0.44496291    -0.11900
C282        C  0.38357318  0.03902429  0.46526899    -0.25900
C283        C  0.38138810  0.04972605  0.49169727     0.36700
C284        C  0.38739018  0.08653668  0.49725806    -0.27600
F285        F  0.41296175  0.13091729  0.43078937    -0.19700
H286        H  0.39848190  0.05930932  0.42453002     0.16000
F287        F  0.37119847  0.02384215  0.51199826    -0.23400
H288        H  0.38260094  0.09313525  0.51747960     0.17800
C289        C  0.17296593  0.22714889  0.49020590    -0.27400
C290        C  0.15470943  0.24275427  0.50550412     0.06200
C291        C  0.16806718  0.25741266  0.53116879     0.25800
C292        C  0.20002365  0.25685297  0.54119604    -0.11900
C293        C  0.21822208  0.24092658  0.52587352    -0.25900
C294        C  0.20425014  0.22585777  0.50028527     0.36600
C295        C  0.11982190  0.24015549  0.49490207     0.06200
F296        F  0.15027066  0.27217259  0.54637629    -0.19700
H297        H  0.21025530  0.26844033  0.56096949     0.16000
F298        F  0.22058215  0.20969326  0.48492378    -0.23400
H299        H  0.16229550  0.21505137  0.47059113     0.17800
C300        C  0.12113967  0.25934773  0.47119151     0.25800
C301        C  0.08715033  0.25102123  0.45851386    -0.11900
C302        C  0.05158434  0.22299686  0.46917479    -0.25900
C303        C  0.05056529  0.20446300  0.49327418     0.36700
C304        C  0.08450790  0.21329790  0.50608649    -0.27600
F305        F  0.15533431  0.28510078  0.45997230    -0.19700
H306        H  0.08869196  0.26583791  0.44008045     0.16000
F307        F  0.01692479  0.17689452  0.50409044    -0.23400
H308        H  0.08332791  0.19770589  0.52405534     0.17800
C309        C  0.98738398  0.36783524  0.47117871    -0.27400
C310        C  0.97267255  0.36319470  0.49742942     0.06200
C311        C  0.95145952  0.32532740  0.50775385     0.25800
C312        C  0.94580096  0.29328714  0.49255120    -0.11900
C313        C  0.96109058  0.29778152  0.46661649    -0.25900
C314        C  0.98169194  0.33545998  0.45586917     0.36600
C315        C  0.97914813  0.39742324  0.51408778     0.06200
F316        F  0.93737018  0.31922782  0.53305792    -0.19700
H317        H  0.92987641  0.26468550  0.50145400     0.16000
F318        F  0.99751164  0.34116126  0.43110765    -0.23400
H319        H  0.00338916  0.39657702  0.46252798     0.17800
C320        C  0.01563955  0.43094043  0.51609976     0.25800
C321        C  0.02067446  0.46326185  0.53099369    -0.11900
C322        C  0.98968240  0.46274972  0.54452124    -0.25900
C323        C  0.95366725  0.42862460  0.54359277     0.36700
C324        C  0.94848942  0.39658561  0.52837947    -0.27600
F325        F  0.04640274  0.43265304  0.50350402    -0.19700
H326        H  0.04862460  0.48933244  0.53118034     0.16000
F327        F  0.92265396  0.42736516  0.55545068    -0.23400
H328        H  0.91995874  0.37152815  0.52696722     0.17800
C329        C  0.15153411  0.70691642  0.53746427    -0.27400
C330        C  0.14978384  0.72358631  0.51333890     0.06200
C331        C  0.11565503  0.70647884  0.49871624     0.25800
C332        C  0.08364789  0.67302486  0.50811860    -0.11900
C333        C  0.08516313  0.65594082  0.53217810    -0.25900
C334        C  0.11948852  0.67314555  0.54685383     0.36600
C335        C  0.18370190  0.75829314  0.50292512     0.06200
F336        F  0.11317086  0.72252748  0.47551202    -0.19700
H337        H  0.05753032  0.66061175  0.49656325     0.16000
F338        F  0.12220992  0.65745897  0.57013700    -0.23400
H339        H  0.17788055  0.71979942  0.54879765     0.17800
C340        C  0.20071101  0.79334961  0.51735402     0.25800
C341        C  0.23118566  0.82665497  0.50618378    -0.11900
C342        C  0.24533796  0.82516645  0.48072534    -0.25900
C343        C  0.22869989  0.78979859  0.46658586     0.36700
C344        C  0.19806023  0.75667836  0.47766637    -0.27600
F345        F  0.18719114  0.79560146  0.54182935    -0.19700
H346        H  0.24368717  0.85360420  0.51745179     0.16000
F347        F  0.24142122  0.78729539  0.44187760    -0.23400
H348        H  0.18520979  0.72968355  0.46642848     0.17800
C349        C  0.51564033  0.47459967  0.49460573    -0.27400
C350        C  0.49795837  0.43607150  0.48550025     0.06200
C351        C  0.51161481  0.42756375  0.46183133     0.25800
C352        C  0.54367547  0.45693952  0.44837770    -0.11900
C353        C  0.56240690  0.49514650  0.45828416    -0.25900
C354        C  0.54720113  0.50394726  0.48102822     0.36600
C355        C  0.46430448  0.40538844  0.50018829     0.06200
F356        F  0.49502636  0.39054779  0.45241199    -0.19700
H357        H  0.55495680  0.44944769  0.43105573     0.16000
F358        F  0.56322243  0.54099882  0.49039730    -0.23400
H359        H  0.50487590  0.48196950  0.51227371     0.17800
C360        C  0.46656087  0.39717510  0.52723719     0.25800
C361        C  0.43425251  0.36774704  0.54056337    -0.11900
C362        C  0.39923201  0.34611378  0.52714549    -0.25900
C363        C  0.39704003  0.35549555  0.50025176     0.36700
C364        C  0.42921393  0.38457721  0.48706736    -0.27600
F365        F  0.50041999  0.41633061  0.54036191    -0.19700
H366        H  0.43700907  0.36094054  0.56102981     0.16000
F367        F  0.36414334  0.33561531  0.48611344    -0.23400
H368        H  0.42675909  0.39077811  0.46637723     0.17800
C369        C  0.68598895  0.71795733  0.50110126    -0.27400
C370        C  0.66381457  0.73194987  0.48943556     0.06200
C371        C  0.64506001  0.71597184  0.46517394     0.25800
C372        C  0.64794401  0.68563213  0.45320228    -0.11900
C373        C  0.66907652  0.67075547  0.46552293    -0.25900
C374        C  0.68837029  0.68742783  0.48949954     0.36600
C375        C  0.66052569  0.76286258  0.50336422     0.06200
F376        F  0.62279885  0.72849937  0.45370609    -0.19700
H377        H  0.63283138  0.67310115  0.43474195     0.16000
F378        F  0.70918809  0.67402130  0.50204477    -0.23400
H379        H  0.70120885  0.73049368  0.51953749     0.17800
C380        C  0.65048752  0.75866691  0.53056158     0.25800
C381        C  0.65231437  0.78969415  0.54484357    -0.11900
C382        C  0.66427948  0.82541573  0.53231703    -0.25900
C383        C  0.67283393  0.82921155  0.50479196     0.36700
C384        C  0.67092220  0.79798956  0.49043642    -0.27600
F385        F  0.63959558  0.72469268  0.54343841    -0.19700
H386        H  0.64509309  0.78597481  0.56590577     0.16000
F387        F  0.68289837  0.86287303  0.49175845    -0.23400
H388        H  0.67879520  0.80163508  0.46948378     0.17800
C389        C  0.76512319  0.52058209  0.50300778    -0.27400
C390        C  0.78094455  0.50394890  0.48614324     0.06200
C391        C  0.76852680  0.49521652  0.45953374     0.25800
C392        C  0.74215451  0.50512841  0.44966306    -0.11900
C393        C  0.72883028  0.52477844  0.46604670    -0.25900
C394        C  0.73979687  0.53151560  0.49303564     0.36600
C395        C  0.81527888  0.50334309  0.49533032     0.06200
F396        F  0.78371104  0.47939115  0.44276247    -0.19700
H397        H  0.73416659  0.49978042  0.42881725     0.16000
F398        F  0.72787637  0.55075470  0.50948181    -0.23400
H399        H  0.77480626  0.52803818  0.52344208     0.17800
C400        C  0.85053845  0.52730975  0.48261785     0.25800
C401        C  0.88458609  0.53451725  0.49449497    -0.11900
C402        C  0.88419742  0.51867813  0.51950856    -0.25900
C403        C  0.84877462  0.49270741  0.53152719     0.36700
C404        C  0.81455149  0.48525829  0.51948145    -0.27600
F405        F  0.85235557  0.54696926  0.46009042    -0.19700
H406        H  0.91143118  0.55467806  0.48488021     0.16000
F407        F  0.84718930  0.47615031  0.55547296    -0.23400
H408        H  0.78757879  0.46704171  0.52965883     0.17800
C409        C  0.18554718  0.95027746  0.31604273    -0.27400
C410        C  0.17657100  0.92054561  0.33457983     0.06200
C411        C  0.13834170  0.88958958  0.33575143     0.25800
C412        C  0.11065493  0.88756263  0.31794542    -0.11900
C413        C  0.11986799  0.91642063  0.29844410    -0.25900
C414        C  0.15770855  0.94867636  0.29854449     0.36600
C415        C  0.20633993  0.92231299  0.35333041     0.06200
F416        F  0.12805741  0.86020616  0.35341278    -0.19700
H417        H  0.08211983  0.86184860  0.31913005     0.16000
F418        F  0.16834875  0.97766788  0.28047861    -0.23400
H419        H  0.21465132  0.97519365  0.31505546     0.17800
C420        C  0.24236008  0.92846807  0.34440309     0.25800
C421        C  0.26898458  0.92848499  0.36262769    -0.11900
C422        C  0.26079379  0.92355968  0.39018156    -0.25900
C423        C  0.22519289  0.91865640  0.39895679     0.36700
C424        C  0.19845492  0.91759042  0.38079839    -0.27600
F425        F  0.25159075  0.93373805  0.31805188    -0.19700
H426        H  0.29617983  0.93280639  0.35521674     0.16000
F427        F  0.21579320  0.91468874  0.42528353    -0.23400
H428        H  0.17154050  0.91361741  0.38836457     0.17800
C429        C  0.94562363  0.05734584  0.36900590    -0.27400
C430        C  0.96826287  0.07024057  0.34583810     0.06200
C431        C  0.98206971  0.10886872  0.33742585     0.25800
C432        C  0.97633215  0.13490793  0.35325015    -0.11900
C433        C  0.95573511  0.12258097  0.37735492    -0.25900
C434        C  0.93908726  0.08299215  0.38449609     0.36600
C435        C  0.97753516  0.04347649  0.33064732     0.06200
F436        F  0.00065441  0.12125620  0.31368724    -0.19700
H437        H  0.98848573  0.16460608  0.34693611     0.16000
F438        F  0.91667653  0.06895449  0.40663511    -0.23400
H439        H  0.93359448  0.02731491  0.37550643     0.17800
C440        C  0.01574874  0.05463383  0.32424306     0.25800
C441        C  0.02401939  0.03153892  0.30722602    -0.11900
C442        C  0.99440976  0.99676249  0.29644809    -0.25900
C443        C  0.95649778  0.98391068  0.30473227     0.36700
C444        C  0.94818689  0.00700698  0.32177971    -0.27600
F445        F  0.04501298  0.08871772  0.33356876    -0.19700
H446        H  0.05319222  0.04232745  0.30072669     0.16000
F447        F  0.92715858  0.95098516  0.29412457    -0.23400
H448        H  0.91853878  0.99751939  0.32669819     0.17800
C449        C  0.77220938  0.68197157  0.33638422    -0.27400
C450        C  0.81036084  0.70311764  0.34542565     0.06200
C451        C  0.81871138  0.69585438  0.37115601     0.25800
C452        C  0.78972666  0.66816907  0.38737464    -0.11900
C453        C  0.75156347  0.64686326  0.37850534    -0.25900
C454        C  0.74298396  0.65399989  0.35272450     0.36600
C455        C  0.84108739  0.73395417  0.32866641     0.06200
F456        F  0.85470885  0.71668233  0.38109176    -0.19700
H457        H  0.79728800  0.66385283  0.40726596     0.16000
F458        F  0.70649315  0.63457013  0.34351727    -0.23400
H459        H  0.76502881  0.68724134  0.31657355     0.17800
C460        C  0.87612936  0.73506758  0.32405944     0.25800
C461        C  0.90462624  0.76430878  0.30818351    -0.11900
C462        C  0.89933611  0.79356067  0.29661318    -0.25900
C463        C  0.86387298  0.79200337  0.30135340     0.36700
C464        C  0.83554000  0.76289185  0.31733843    -0.27600
F465        F  0.88206228  0.70663502  0.33366404    -0.19700
H466        H  0.93015901  0.76238991  0.30369244     0.16000
F467        F  0.85536417  0.81718247  0.28927360    -0.23400
H468        H  0.80885966  0.76260295  0.32052776     0.17800
C469        C  0.14674912  0.87720720  0.17808394    -0.27400
C470        C  0.17403186  0.91354744  0.16763570     0.06200
C471        C  0.16858573  0.94558324  0.17229686     0.25800
C472        C  0.13841237  0.94175114  0.18882334    -0.11900
C473        C  0.11287119  0.90597085  0.20083371    -0.25900
C474        C  0.11673192  0.87346776  0.19454620     0.36600
C475        C  0.20807104  0.91747106  0.15241578     0.06200
F476        F  0.19408284  0.98130479  0.16266355    -0.19700
H477        H  0.13700812  0.96756448  0.19411747     0.16000
F478        F  0.09351962  0.83870104  0.20637444    -0.23400
H479        H  0.14948137  0.85206692  0.17435290     0.17800
C480        C  0.23007011  0.90149654  0.16212888     0.25800
C481        C  0.25986329  0.90245352  0.14666110    -0.11900
C482        C  0.26825003  0.91901671  0.12109007    -0.25900
C483        C  0.24718270  0.93632222  0.11185261     0.36700
C484        C  0.21777746  0.93570759  0.12739972    -0.27600
F485        F  0.22269706  0.88477324  0.18660687    -0.19700
H486        H  0.27570279  0.88916604  0.15443785     0.16000
F487        F  0.25418917  0.95307358  0.08737486    -0.23400
H488        H  0.20154246  0.94815251  0.11934809     0.17800
C489        C  0.43795545  0.15445455  0.00341404    -0.27400
C490        C  0.41764594  0.13397883  0.02624355     0.06200
C491        C  0.38613818  0.13735634  0.03506632     0.25800
C492        C  0.37273874  0.15693933  0.01948657    -0.11900
C493        C  0.38994067  0.17264535  0.99475371    -0.25900
C494        C  0.42370107  0.17275030  0.98733916     0.36600
C495        C  0.42269456  0.10193836  0.03630723     0.06200
F496        F  0.36569186  0.11831758  0.05711848    -0.19700
H497        H  0.34725810  0.15742524  0.02593670     0.16000
F498        F  0.44181379  0.18859357  0.96391962    -0.23400
H499        H  0.46292877  0.15317884  0.99669217     0.17800
C500        C  0.42204028  0.07461281  0.01788077     0.25800
C501        C  0.41400632  0.03824752  0.02655548    -0.11900
C502        C  0.40617014  0.02828560  0.05349923    -0.25900
C503        C  0.41138945  0.05671002  0.07241048     0.36700
C504        C  0.41986154  0.09362007  0.06377517    -0.27600
F505        F  0.42413352  0.08083580  0.99114209    -0.19700
H506        H  0.41040033  0.01655428  0.01179923     0.16000
F507        F  0.40384356  0.04750076  0.09864404    -0.23400
H508        H  0.42092957  0.11447239  0.07830703     0.17800
C509        C  0.13034645  0.23305960  0.99416704    -0.27400
C510        C  0.15629028  0.22990611  0.01089884     0.06200
C511        C  0.15245611  0.23107575  0.03874210     0.25800
C512        C  0.12214613  0.23424780  0.04964712    -0.11900
C513        C  0.09538558  0.23592589  0.03283338    -0.25900
C514        C  0.10015646  0.23623887  0.00501339     0.36600
C515        C  0.18820896  0.22712471  0.99902169     0.06200
F516        F  0.17827945  0.22969682  0.05525558    -0.19700
H517        H  0.11905811  0.23447005  0.07114713     0.16000
F518        F  0.07604037  0.24034258  0.98833983    -0.23400
H519        H  0.13347704  0.23293824  0.97266614     0.17800
C520        C  0.19340289  0.19552411  0.00469170     0.25800
C521        C  0.22457882  0.19405174  0.99378423    -0.11900
C522        C  0.25031092  0.22354707  0.97661226    -0.25900
C523        C  0.24424075  0.25450094  0.97026391     0.36700
C524        C  0.21347952  0.25626886  0.98156862    -0.27600
F525        F  0.16784155  0.16572066  0.02017761    -0.19700
H526        H  0.22832532  0.16958976  0.99851776     0.16000
F527        F  0.26811870  0.28326717  0.95341974    -0.23400
H528        H  0.20949021  0.28060594  0.97688042     0.17800
C529        C  0.01801165  0.13758103  0.15744909    -0.27400
C530        C  0.99215300  0.09759084  0.15308990     0.06200
C531        C  0.96295483  0.08768745  0.13406205     0.25800
C532        C  0.96101706  0.11655675  0.11920871    -0.11900
C533        C  0.98775269  0.15630112  0.12278622    -0.25900
C534        C  0.01585548  0.16654332  0.14261082     0.36600
C535        C  0.99516815  0.06647521  0.16844683     0.06200
F536        F  0.93712690  0.04989707  0.12873869    -0.19700
H537        H  0.93906075  0.10757928  0.10409889     0.16000
F538        F  0.04248311  0.20442772  0.14678277    -0.23400
H539        H  0.04012440  0.14658999  0.17236790     0.17800
C540        C  0.03074187  0.06891068  0.17373542     0.25800
C541        C  0.03266044  0.04002384  0.18875213    -0.11900
C542        C  0.99941748  0.00762780  0.19908843    -0.25900
C543        C  0.96393022  0.00558323  0.19390834     0.36700
C544        C  0.96200682  0.03409009  0.17865903    -0.27600
F545        F  0.06397921  0.09958791  0.16488337    -0.19700
H546        H  0.06079423  0.04439980  0.19351200     0.16000
F547        F  0.93106008  0.97767410  0.20539838    -0.23400
H548        H  0.93420000  0.03175342  0.17610330     0.17800
C549        C  0.52632078  0.89094948  0.96696184    -0.27400
C550        C  0.52920551  0.90560443  0.99313786     0.06200
C551        C  0.56524825  0.92480068  0.00530686     0.25800
C552        C  0.59737220  0.92857849  0.99192936    -0.11900
C553        C  0.59475211  0.91342049  0.96602636    -0.25900
C554        C  0.55882178  0.89476757  0.95343289     0.36600
C555        C  0.49526996  0.90277328  0.00730920     0.06200
F556        F  0.56971571  0.94093660  0.02994808    -0.19700
H557        H  0.62470316  0.94371315  0.00204739     0.16000
F558        F  0.55484927  0.87940073  0.92858148    -0.23400
H559        H  0.49876608  0.87616969  0.95712795     0.17800
C560        C  0.47327666  0.91657093  0.99507862     0.25800
C561        C  0.44262044  0.91585314  0.00870114    -0.11900
C562        C  0.43327869  0.90202939  0.03511122    -0.25900
C563        C  0.45515247  0.88801339  0.04748358     0.36700
C564        C  0.48590640  0.88842683  0.03363510    -0.27600
F565        F  0.48259921  0.93262826  0.97037398    -0.19700
H566        H  0.42670182  0.92724565  0.99858347     0.16000
F567        F  0.44699802  0.87409137  0.07278442    -0.23400
H568        H  0.50257690  0.87769002  0.04349849     0.17800
C569        C  0.77662236  0.08811010  0.99743236    -0.27400
C570        C  0.79781216  0.11815045  0.97925244     0.06200
C571        C  0.78980087  0.11123173  0.95178703     0.25800
C572        C  0.76449659  0.07348220  0.94268746    -0.11900
C573        C  0.74770348  0.04261422  0.96090492    -0.25900
C574        C  0.75227171  0.05055906  0.98841722     0.36600
C575        C  0.83428419  0.15102114  0.98886888     0.06200
F576        F  0.80891847  0.14009996  0.93375271    -0.19700
H577        H  0.76077246  0.06788512  0.92140853     0.16000
F578        F  0.73595884  0.02150845  0.00665517    -0.23400
H579        H  0.78236177  0.09249316  0.01863793     0.17800
C580        C  0.83571980  0.16927689  0.01335269     0.25800
C581        C  0.87006206  0.18868432  0.02745085    -0.11900
C582        C  0.90343858  0.19042926  0.01723525    -0.25900
C583        C  0.90277859  0.17555561  0.99153518     0.36700
C584        C  0.86844716  0.15602932  0.97755361    -0.27600
F585        F  0.80325859  0.16543923  0.02463862    -0.19700
H586        H  0.87004799  0.20060772  0.04696879     0.16000
F587        F  0.93460796  0.17745028  0.98059403    -0.23400
H588        H  0.86802120  0.14167915  0.95897335     0.17800
C589        C  0.99917748  0.39081088  0.03615611    -0.27400
C590        C  0.02400112  0.40778386  0.01422204     0.06200
C591        C  0.04859705  0.39379227  0.00683031     0.25800
C592        C  0.04795620  0.36314325  0.02089183    -0.10100
C593        C  0.02213152  0.34498925  0.04225302    -0.25900
C594        C  0.99771014  0.35926977  0.04978952     0.36600
C595        C  0.02320060  0.43909909  0.99860330     0.06200
F596        F  0.07281207  0.40934002  0.98568772    -0.19700
H597        H  0.06678495  0.35257481  0.01428493     0.16000
F598        F  0.97107157  0.34155287  0.06931645    -0.23400
H599        H  0.97972758  0.40096774  0.04199642     0.17800
C600        C  0.01353460  0.43394787  0.97133378     0.25800
C601        C  0.01162197  0.46317377  0.95696553    -0.11900
C602        C  0.01937191  0.49807556  0.96950828    -0.25900
C603        C  0.02989007  0.50346167  0.99674236     0.36700
C604        C  0.03154508  0.47417435  0.01105660    -0.27600
F605        F  0.00466585  0.40005252  0.95883303    -0.19700
H606        H  0.00309213  0.45808473  0.93621852     0.16000
F607        F  0.03872605  0.53712791  0.00963934    -0.23400
H608        H  0.03942175  0.47888951  0.03194522     0.17800
C609        C  0.22009772  0.79181568  0.99091142    -0.27400
C610        C  0.20512631  0.75438047  0.00143584     0.06200
C611        C  0.22108388  0.74879128  0.02462519     0.25800
C612        C  0.25024527  0.78071119  0.03793522    -0.11900
C613        C  0.26403102  0.81841333  0.02808045    -0.25900
C614        C  0.24950437  0.82366637  0.00397973     0.36600
C615        C  0.17125811  0.72193721  0.98898113     0.06200
F616        F  0.20833957  0.71253043  0.03439514    -0.19700
H617        H  0.26159621  0.77597214  0.05615132     0.16000
F618        F  0.26322071  0.85952380  0.99317392    -0.23400
H619        H  0.20819253  0.79650248  0.97294439     0.17800
C620        C  0.13779828  0.69998869  0.00411665     0.25800
C621        C  0.10466959  0.67164006  0.99179393    -0.11900
C622        C  0.10427243  0.66487629  0.96424185    -0.25900
C623        C  0.13786181  0.68643406  0.94909082     0.36700
C624        C  0.17114018  0.71493507  0.96146522    -0.27600
F625        F  0.13657246  0.70725865  0.03053559    -0.19700
H626        H  0.07906071  0.65525010  0.00381249     0.16000
F627        F  0.13814351  0.68117728  0.92230437    -0.23400
H628        H  0.19669211  0.73202397  0.94954135     0.17800
C629        C  0.50350618  0.36872473  0.97314332    -0.27400
C630        C  0.49643991  0.39420946  0.98878073     0.06200
C631        C  0.45864182  0.38743136  0.99001001     0.25800
C632        C  0.42875507  0.35512327  0.97709495    -0.11900
C633        C  0.43546065  0.32857178  0.96256085    -0.25900
C634        C  0.47342602  0.33607037  0.96042922     0.36600
C635        C  0.52778166  0.42612835  0.00499225     0.06200
F636        F  0.44998645  0.41053819  0.00514168    -0.19700
H637        H  0.39984116  0.34998811  0.97941822     0.16000
F638        F  0.48118211  0.31045227  0.94774385    -0.23400
H639        H  0.53231164  0.37339491  0.97143878     0.17800
C640        C  0.55258776  0.41901995  0.02066747     0.25800
C641        C  0.58157707  0.44884961  0.03602338    -0.11900
C642        C  0.58690988  0.48658302  0.03584944    -0.25900
C643        C  0.56186894  0.49367384  0.02056799     0.36700
C644        C  0.53263516  0.46380265  0.00547409    -0.27600
F645        F  0.54886404  0.38313576  0.02118349    -0.19700
H646        H  0.60105406  0.44285814  0.04703348     0.16000
F647        F  0.56636650  0.52992305  0.01967747    -0.23400
H648        H  0.51439370  0.47046673  0.99354818     0.17800
C649        C  0.67226642  0.72147456  0.03483862    -0.27400
C650        C  0.68369445  0.73305078  0.00841959     0.06200
C651        C  0.69702203  0.71313027  0.99244956     0.25800
C652        C  0.69839482  0.68151561  0.00275053    -0.11900
C653        C  0.68647809  0.66936613  0.02907051    -0.25900
C654        C  0.67322956  0.68947032  0.04512763     0.36600
C655        C  0.68266291  0.76654704  0.99760825     0.06200
F656        F  0.70953758  0.72487031  0.96711609    -0.19700
H657        H  0.70882756  0.66653453  0.99007018     0.16000
F658        F  0.66155261  0.67852291  0.07068464    -0.23400
H659        H  0.66224452  0.73700749  0.04732794     0.17800
C660        C  0.66149426  0.76261296  0.97456417     0.25800
C661        C  0.66380469  0.79540908  0.96288105    -0.11900
C662        C  0.68668313  0.83225731  0.97439188    -0.25900
C663        C  0.70621627  0.83571015  0.99832814     0.36700
C664        C  0.70441023  0.80298806  0.00968055    -0.27600
F665        F  0.63871178  0.72707020  0.96345203    -0.19700
H666        H  0.64798966  0.79200977  0.94473175     0.16000
F667        F  0.72719840  0.87058600  0.01072760    -0.23400
H668        H  0.72057814  0.80614775  0.02761721     0.17800
C669        C  0.76128038  0.47798357  0.00457764    -0.27400
C670        C  0.78224205  0.49892577  0.98204722     0.06200
C671        C  0.77721030  0.52902658  0.97216709     0.25800
C672        C  0.75467409  0.54056395  0.98613921    -0.11900
C673        C  0.73744157  0.52286080  0.01042059    -0.25900
C674        C  0.73863806  0.48969249  0.01869344     0.36600
C675        C  0.81633824  0.49739892  0.97326742     0.06200
F676        F  0.79813069  0.55074402  0.95105362    -0.19700
H677        H  0.75343758  0.56560091  0.97901371     0.16000
F678        F  0.72012694  0.47024749  0.04117943    -0.23400
H679        H  0.76491468  0.45466064  0.01237204     0.17800
C680        C  0.84700025  0.51053427  0.99113030     0.25800
C681        C  0.88364533  0.52265822  0.98156928    -0.11900
C682        C  0.89046835  0.52198460  0.95413825    -0.25900
C683        C  0.85933127  0.50495714  0.93647055     0.36700
C684        C  0.82233526  0.49301378  0.94607458    -0.27600
F685        F  0.84246947  0.51628858  0.01736123    -0.19700
H686        H  0.90721863  0.53506621  0.99556224     0.16000
F687        F  0.86493124  0.50318209  0.90986157    -0.23400
H688        H  0.79892395  0.48326636  0.93207874     0.17800
C689        C  0.83954729  0.69865639  0.12177413    -0.27400
C690        C  0.82835776  0.70870078  0.14574740     0.06200
C691        C  0.78922498  0.68838434  0.15298856     0.25800
C692        C  0.76208113  0.65850416  0.13660155    -0.11900
C693        C  0.77336144  0.64844905  0.11258131    -0.25900
C694        C  0.81252945  0.66914203  0.10533015     0.36600
C695        C  0.85774778  0.74016793  0.16302447     0.06200
F696        F  0.77719860  0.69696440  0.17612761    -0.19700
H697        H  0.73238945  0.64378652  0.14245148     0.16000
F698        F  0.82500526  0.66126765  0.08212518    -0.23400
H699        H  0.86912877  0.71405012  0.11557060     0.17800
C700        C  0.89109852  0.73974638  0.17078208     0.25800
C701        C  0.91688330  0.76762353  0.18881990    -0.11900
C702        C  0.91006832  0.79649756  0.19932687    -0.25900
C703        C  0.87786210  0.79811110  0.19053840     0.36700
C704        C  0.85209452  0.77034511  0.17251077    -0.27600
F705        F  0.89719147  0.71058231  0.16262944    -0.19700
H706        H  0.94058156  0.76478770  0.19624858     0.16000
F707        F  0.86949728  0.82447587  0.20133127    -0.23400
H708        H  0.82705095  0.77162635  0.16668424     0.17800
C709        C  0.16648206  0.02989086  0.66604780    -0.27400
C710        C  0.16454629  0.06324697  0.65938028     0.06200
C711        C  0.13374092  0.06690576  0.66936447     0.25800
C712        C  0.10796536  0.04005005  0.68781837    -0.11900
C713        C  0.11209228  0.00879909  0.69635584    -0.25900
C714        C  0.14051459  0.00290998  0.68448125     0.36600
C715        C  0.19524532  0.09481826  0.64294390     0.06200
F716        F  0.12955610  0.09743390  0.66211223    -0.19700
H717        H  0.08654331  0.04532510  0.69701338     0.16000
F718        F  0.14512617  0.97291942  0.69248558    -0.23400
H719        H  0.18951662  0.02600275  0.65828053     0.17800
C720        C  0.21327088  0.13405255  0.65132486     0.25800
C721        C  0.24046829  0.16383079  0.63492718    -0.11900
C722        C  0.25033765  0.15509657  0.60990189    -0.25900
C723        C  0.23314421  0.11560241  0.60203621     0.36700
C724        C  0.20627296  0.08598489  0.61848549    -0.27600
F725        F  0.20456284  0.14358490  0.67543105    -0.19700
H726        H  0.25306489  0.19376953  0.64152150     0.16000
F727        F  0.24145474  0.10540855  0.57803327    -0.23400
H728        H  0.19305038  0.05609547  0.61164946     0.17800
C729        C  0.18809284  0.03942525  0.81433051    -0.27400
C730        C  0.18312245  0.06579176  0.83037532     0.06200
C731        C  0.14777058  0.06498136  0.82876511     0.25800
C732        C  0.11896724  0.03945121  0.81098553    -0.11900
C733        C  0.12418578  0.01340145  0.79449108    -0.25900
C734        C  0.15927442  0.01360779  0.79690164     0.36600
C735        C  0.21487849  0.09384850  0.84849996     0.06200
F736        F  0.14085278  0.08876204  0.84454424    -0.19700
H737        H  0.09322699  0.04134546  0.80969209     0.16000
F738        F  0.16647875  0.98966829  0.78152445    -0.23400
H739        H  0.21493653  0.03939335  0.81474377     0.17800
C740        C  0.23479261  0.08125898  0.86495110     0.25800
C741        C  0.26398674  0.10742458  0.88208979    -0.11900
C742        C  0.27474699  0.14705880  0.88312288    -0.25900
C743        C  0.25520075  0.15982675  0.86651087     0.36700
C744        C  0.22577263  0.13358221  0.84946515    -0.27600
F745        F  0.22508897  0.04323052  0.86525446    -0.19700
H746        H  0.27789199  0.09644790  0.89493776     0.16000
F747        F  0.26324425  0.19733351  0.86763257    -0.23400
H748        H  0.21139709  0.14442315  0.83698040     0.17800
C749        C  0.87635055  0.95762171  0.68336564    -0.27400
C750        C  0.84656310  0.92379077  0.67162396     0.06200
C751        C  0.84799024  0.88916324  0.67367011     0.25800
C752        C  0.87704724  0.88804747  0.68839038    -0.11900
C753        C  0.90595873  0.92153086  0.70146744    -0.25900
C754        C  0.90535529  0.95658739  0.69813729     0.36600
C755        C  0.81433874  0.92507419  0.65748766     0.06200
F756        F  0.82091208  0.85604674  0.66170910    -0.19700
H757        H  0.87503984  0.86008336  0.69060489     0.16000
F758        F  0.93135713  0.98953702  0.71085038    -0.23400
H759        H  0.87625512  0.98479318  0.68210260     0.17800
C760        C  0.77542366  0.89855491  0.66334580     0.25800
C761        C  0.74579358  0.90024902  0.64967768    -0.11900
C762        C  0.75404396  0.92799521  0.62956280    -0.25900
C763        C  0.79300667  0.95496935  0.62417859     0.36700
C764        C  0.82249123  0.95364975  0.63810591    -0.27600
F765        F  0.76592407  0.87107524  0.68242833    -0.19700
H766        H  0.71630348  0.87895125  0.65425249     0.16000
F767        F  0.80286312  0.98246289  0.60506307    -0.23400
H768        H  0.85199294  0.97456387  0.63320481     0.17800
C769        C  0.89859850  0.96075507  0.82645540    -0.27400
C770        C  0.86661958  0.92679630  0.83625504     0.06200
C771        C  0.86187975  0.89048220  0.82846348     0.25800
C772        C  0.88731451  0.88826173  0.81015823    -0.11900
C773        C  0.91753351  0.92211783  0.79887529    -0.25900
C774        C  0.92344660  0.95845759  0.80761916     0.36600
C775        C  0.83663793  0.92920387  0.85263765     0.06200
F776        F  0.83134851  0.85706326  0.83741975    -0.19700
H777        H  0.88132073  0.85998045  0.80293366     0.16000
F778        F  0.95067306  0.99150935  0.79565839    -0.23400
H779        H  0.90265636  0.98903636  0.83184738     0.17800
C780        C  0.84578888  0.95002622  0.87682540     0.25800
C781        C  0.81706294  0.95109199  0.89221218    -0.11900
C782        C  0.77855066  0.93206720  0.88377387    -0.25900
C783        C  0.76956946  0.91208755  0.85918774     0.36700
C784        C  0.79831247  0.91057874  0.84393884    -0.27600
F785        F  0.88229200  0.96834525  0.88605451    -0.19700
H786        H  0.82504880  0.96669830  0.91103561     0.16000
F787        F  0.73299638  0.89318244  0.85015392    -0.23400
H788        H  0.79062280  0.89477473  0.82519038     0.17800
C789        C  0.95852198  0.72922590  0.67907405    -0.27400
C790        C  0.99016018  0.73291700  0.66475546     0.06200
C791        C  0.02504830  0.76826007  0.66634938     0.25800
C792        C  0.02852701  0.79876264  0.68282869    -0.11900
C793        C  0.99717327  0.79477143  0.69811932    -0.25900
C794        C  0.96192570  0.75930062  0.69574509     0.36600
C795        C  0.98637952  0.69972706  0.64825748     0.06200
F796        F  0.05594720  0.77306930  0.65216200    -0.19700
H797        H  0.05638934  0.82458079  0.68451651     0.16000
F798        F  0.93110171  0.75257488  0.71087280    -0.23400
H799        H  0.93134924  0.70227722  0.67812599     0.17800
C800        C  0.00535445  0.67934838  0.65512791     0.25800
C801        C  0.00146604  0.64818827  0.63925145    -0.11900
C802        C  0.97932444  0.63730619  0.61589425    -0.25900
C803        C  0.96024842  0.65777653  0.60917116     0.36700
C804        C  0.96333040  0.68811665  0.62542915    -0.27600
F805        F  0.02777497  0.68966650  0.67714361    -0.19700
H806        H  0.01686272  0.63344067  0.64474509     0.16000
F807        F  0.93911470  0.64907889  0.58656421    -0.23400
H808        H  0.94844644  0.70334399  0.61978962     0.17800
C809        C  0.97498930  0.75788082  0.82907090    -0.27400
C810        C  0.00635675  0.75170990  0.83100881     0.06200
C811        C  0.03946890  0.77503936  0.81584699     0.25800
C812        C  0.04083311  0.80336809  0.79872536    -0.11900
C813        C  0.00857235  0.80765486  0.79521769    -0.25900
C814        C  0.97567232  0.78495513  0.81082397     0.36600
C815        C  0.00390044  0.71982784  0.84783110     0.06200
F816        F  0.06971720  0.76893776  0.81644357    -0.19700
H817        H  0.06584714  0.81935389  0.78608443     0.16000
F818        F  0.94302714  0.78602350  0.80642561    -0.23400
H819        H  0.94901413  0.73980190  0.84033484     0.17800
C820        C  0.99942477  0.72039337  0.87558134     0.25800
C821        C  0.99820355  0.69088025  0.89138653    -0.11900
C822        C  0.00119899  0.65990822  0.87994848    -0.25900
C823        C  0.00522347  0.65911155  0.85205724     0.36700
C824        C  0.00664385  0.68889774  0.83620989    -0.27600
F825        F  0.99727624  0.75008736  0.88748800    -0.19700
H826        H  0.99531169  0.69260277  0.91279660     0.16000
F827        F  0.00779776  0.62972340  0.84010223    -0.23400
H828        H  0.00984333  0.68784255  0.81477812     0.17800
loop_ 
_geom_bond_atom_site_label_1 
_geom_bond_atom_site_label_2 
_geom_bond_distance 
_geom_bond_site_symmetry_2 
_ccdc_geom_bond_type 
C1            C2   1.541   1_455  S
C1            C7   1.513       .  S
C1            C5   1.559       .  S
C1          C793   1.541   1_455  S
C2            H9   1.081       .  S
C2            C3   1.380       .  D
C3            C4   1.556   1_655  S
C3           C18   1.518       .  S
C4            C8   1.549       .  S
C4            C6   1.543       .  S
C4           H10   1.107       .  S
C5           H11   1.084       .  S
C5            C6   1.379       .  D
C6           C30   1.497       .  S
C7           H12   1.089       .  S
C7            C8   1.349       .  D
C8          C813   1.482       .  S
C13          C14   1.555       .  S
C13          C19   1.517       .  S
C13          C17   1.547       .  S
C13         C753   1.548       .  S
C14          H21   1.086       .  S
C14          C15   1.378       .  D
C15          C16   1.544       .  S
C15          C27   1.498   1_655  S
C16          C20   1.547       .  S
C16          C18   1.554       .  S
C16          H22   1.107       .  S
C17          H23   1.078       .  S
C17          C18   1.383       .  D
C19          H24   1.088       .  S
C19          C20   1.349       .  D
C20         C773   1.483       .  S
C25          C26   1.557       .  S
C25          C31   1.524   1_565  S
C25          C29   1.550       .  S
C25         C733   1.550   1_565  S
C26          H33   1.084       .  S
C26          C27   1.378       .  D
C27          C28   1.544       .  S
C28          C32   1.541       .  S
C28          C30   1.546       .  S
C28          H34   1.111       .  S
C29          H35   1.086       .  S
C29          C30   1.375       .  D
C31          H36   1.088       .  S
C31          C32   1.354   1_545  D
C32         C713   1.479   1_565  S
In37         O39   2.238       .  S
In37         O40   2.195       .  S
In37         O48   2.210       .  S
In37         O42   2.285       .  S
In37         O44   2.288       .  S
In37         O45   2.191       .  S
In37         O46   2.224       .  S
In37         O49   2.219       .  S
C38          O44   1.271       .  A
C38          O46   1.259       .  A
C38         C693   1.493       .  S
O39          C47   1.265       .  A
O40          C47   1.263       .  A
C41          O48   1.256       .  A
C41          O42   1.271       .  A
C41         C642   1.485       .  S
C43          O45   1.265       .  A
C43          O49   1.267       .  A
C43         C653   1.462       .  S
C47         C673   1.469       .  S
In50         O52   2.249   1_455  S
In50         O53   2.169   1_455  S
In50         O61   2.277       .  S
In50         O55   2.196       .  S
In50         O57   2.277       .  S
In50         O58   2.183       .  S
In50         O59   2.197   1_455  S
In50         O62   2.227       .  S
C51          O57   1.278       .  A
C51          O59   1.264   1_455  A
C51         C822   1.491       .  S
O52          C60   1.270       .  A
O53          C60   1.266       .  A
C54          O61   1.280       .  A
C54          O55   1.262       .  A
C54         C602   1.489       .  S
C56          O58   1.267       .  A
C56          O62   1.270       .  A
C56         C622   1.465       .  S
C60         C682   1.467       .  S
In63         O65   2.245       .  S
In63         O66   2.186       .  S
In63         O74   2.178       .  S
In63         O68   2.297       .  S
In63         O70   2.292       .  S
In63         O71   2.197       .  S
In63         O72   2.215       .  S
In63         O75   2.216       .  S
C64          O70   1.276       .  A
C64          O72   1.261       .  A
C64         C782   1.497       .  S
O65          C73   1.269   1_565  A
O66          C73   1.264   1_565  A
C67          O74   1.259       .  A
C67          O68   1.277       .  A
C67         C553   1.486       .  S
C69          O71   1.264       .  A
C69          O75   1.267       .  A
C69         C662   1.465       .  S
C73         C573   1.467       .  S
In76         O78   2.234   1_455  S
In76         O79   2.218   1_455  S
In76         O87   2.226       .  S
In76         O81   2.291   1_455  S
In76         O83   2.302       .  S
In76         O84   2.198       .  S
In76         O85   2.247   1_455  S
In76         O88   2.230       .  S
C77          O83   1.270   1_655  A
C77          O85   1.260       .  A
C77         C533   1.502       .  S
O78          C86   1.265       .  A
O79          C86   1.262       .  A
C80          O87   1.255       .  A
C80          O81   1.269   1_455  A
C80         C593   1.490       .  S
C82          O84   1.264       .  A
C82          O88   1.266       .  A
C82         C513   1.461       .  S
C86         C582   1.474       .  S
In89         O91   2.227       .  S
In89         O92   2.220       .  S
In89        O100   2.239       .  S
In89         O94   2.304       .  S
In89         O96   2.294       .  S
In89         O97   2.219       .  S
In89         O98   2.266       .  S
In89        O101   2.212       .  S
C90          O96   1.266       .  A
C90          O98   1.258       .  A
C90         C742   1.501       .  S
O91          C99   1.265       .  A
O92          C99   1.263       .  A
C93         O100   1.256       .  A
C93          O94   1.269       .  A
C93         C633   1.496       .  S
C95          O97   1.265       .  A
C95         O101   1.264       .  A
C95         C522   1.467       .  S
C99         C493   1.471       .  S
In102       O104   2.239       .  S
In102       O105   2.162       .  S
In102       O113   2.176       .  S
In102       O107   2.288       .  S
In102       O109   2.287       .  S
In102       O110   2.184       .  S
In102       O111   2.200       .  S
In102       O114   2.219       .  S
C103        O109   1.279       .  A
C103        O111   1.261       .  A
C103        C482   1.495       .  S
O104        C112   1.270       .  A
O105        C112   1.265       .  A
C106        O113   1.260       .  A
C106        O107   1.280       .  A
C106        C562   1.488       .  S
C108        O110   1.264       .  A
C108        O114   1.269       .  A
C108        C613   1.466       .  S
C112        C502   1.458   1_565  S
C115        C116   1.548       .  S
C115        C121   1.514       .  S
C115        C119   1.547       .  S
C115        C462   1.533       .  S
C116        H123   1.083       .  S
C116        C117   1.384       .  D
C117        C118   1.555       .  S
C117        C144   1.521   1_655  S
C118        C122   1.549       .  S
C118        C120   1.542       .  S
C118        H124   1.107       .  S
C119        H125   1.089       .  S
C119        C120   1.370       .  D
C120        C132   1.487       .  S
C121        H126   1.081       .  S
C121        C122   1.348       .  D
C122        C702   1.481       .  S
C127        C128   1.556       .  S
C127        C133   1.522   1_565  S
C127        C131   1.549   1_455  S
C127        C542   1.543   1_465  S
C128        H135   1.082       .  S
C128        C129   1.378       .  D
C129        C130   1.551       .  S
C129        C141   1.502       .  S
C130        C134   1.545       .  S
C130        C132   1.543   1_455  S
C130        H136   1.111       .  S
C131        H137   1.090       .  S
C131        C132   1.370       .  D
C133        H138   1.092   1_455  S
C133        C134   1.351   1_545  D
C134        C442   1.483   1_455  S
C139        C140   1.550       .  S
C139        C145   1.517       .  S
C139        C143   1.551       .  S
C139        C413   1.546       .  S
C140        H147   1.090       .  S
C140        C141   1.375       .  D
C141        C142   1.548       .  S
C142        C146   1.556       .  S
C142        C144   1.559       .  S
C142        H148   1.106       .  S
C143        H149   1.083       .  S
C143        C144   1.382       .  D
C145        H150   1.089       .  S
C145        C146   1.348       .  D
C146        C473   1.492       .  S
In151       O153   2.227       .  S
In151       O154   2.186       .  S
In151       O162   2.191       .  S
In151       O156   2.288       .  S
In151       O158   2.281       .  S
In151       O159   2.195       .  S
In151       O160   2.195       .  S
In151       O163   2.251       .  S
C152        O158   1.273       .  A
C152        O160   1.259       .  A
C152        C453   1.486       .  S
O153        C161   1.266       .  A
O154        C161   1.263       .  A
C155        O162   1.256       .  A
C155        O156   1.273       .  A
C155        C353   1.480       .  S
C157        O159   1.261       .  A
C157        O163   1.268       .  A
C157        C393   1.472       .  S
C161        C373   1.465       .  S
In164       O166   2.231   1_655  S
In164       O167   2.206   1_655  S
In164       O175   2.238   1_655  S
In164       O169   2.277       .  S
In164       O171   2.289       .  S
In164       O172   2.222       .  S
In164       O173   2.224       .  S
In164       O176   2.234       .  S
C165        O171   1.272       .  A
C165        O173   1.258       .  A
C165        C802   1.493       .  S
O166        C174   1.267       .  A
O167        C174   1.266       .  A
C168        O175   1.257   1_655  A
C168        O169   1.267       .  A
C168        C322   1.485       .  S
C170        O172   1.264       .  A
C170        O176   1.263       .  A
C170        C402   1.474       .  S
C174        C333   1.473       .  S
In177       O179   2.233       .  S
In177       O180   2.185       .  S
In177       O188   2.200       .  S
In177       O182   2.295       .  S
In177       O184   2.298       .  S
In177       O185   2.197       .  S
In177       O186   2.207       .  S
In177       O189   2.239       .  S
C178        O184   1.273       .  A
C178        O186   1.257       .  A
C178        C722   1.492       .  S
O179        C187   1.267       .  A
O180        C187   1.262       .  A
C181        O188   1.256       .  A
C181        O182   1.274       .  A
C181        C362   1.491       .  S
C183        O185   1.262       .  A
C183        O189   1.267       .  A
C183        C273   1.470       .  S
C187        C293   1.466       .  S
In190       O192   2.205       .  S
In190       O193   2.199       .  S
In190       O201   2.210       .  S
In190       O195   2.317       .  S
In190       O197   2.304       .  S
In190       O198   2.171       .  S
In190       O199   2.216       .  S
In190       O202   2.239       .  S
C191        O197   1.279       .  A
C191        O199   1.262       .  A
C191        C422   1.503       .  S
O192        C200   1.269       .  A
O193        C200   1.267       .  A
C194        O201   1.260       .  A
C194        O195   1.279       .  A
C194        C253   1.506       .  S
C196        O198   1.264       .  A
C196        O202   1.268       .  A
C196        C282   1.462   1_565  S
C200        C342   1.466       .  S
In203       O205   2.221   1_655  S
In203       O206   2.205       .  S
In203       O214   2.188       .  S
In203       O208   2.274       .  S
In203       O210   2.271       .  S
In203       O211   2.186       .  S
In203       O212   2.199       .  S
In203       O215   2.229       .  S
C204        O210   1.277       .  A
C204        O212   1.263       .  A
C204        C433   1.489       .  S
O205        C213   1.268       .  A
O206        C213   1.268   1_655  A
C207        O214   1.264       .  A
C207        O208   1.278       .  A
C207        C313   1.487       .  S
C209        O211   1.268       .  A
C209        O215   1.269       .  A
C209        C242   1.455       .  S
C213        C302   1.473       .  S
In216       O218   2.222       .  S
In216       O219   2.230       .  S
In216       O227   2.262       .  S
In216       O221   2.294       .  S
In216       O223   2.318       .  S
In216       O224   2.210       .  S
In216       O225   2.263       .  S
In216       O228   2.245       .  S
C217        O223   1.268       .  A
C217        O225   1.257       .  A
C217        C762   1.506       .  S
O218        C226   1.264       .  A
O219        C226   1.262       .  A
C220        O227   1.258       .  A
C220        O221   1.265       .  A
C220        C262   1.502       .  S
C222        O224   1.261       .  A
C222        O228   1.266       .  A
C222        C233   1.471   1_565  S
C226        C382   1.468       .  S
C229        C230   1.408       .  A
C229        C234   1.396       .  A
C229        H239   1.082       .  S
C230        C235   1.482       .  S
C230        C231   1.407       .  A
C231        C232   1.394   1_545  A
C231        F236   1.358       .  S
C232        C233   1.404   1_565  A
C232        H237   1.083       .  S
C233        C234   1.403       .  A
C234        F238   1.357       .  S
C235        C240   1.410       .  A
C235        C244   1.408       .  A
C240        C241   1.399       .  A
C240        F245   1.358       .  S
C241        C242   1.400       .  A
C241        H246   1.084       .  S
C242        C243   1.397       .  A
C243        C244   1.389       .  A
C243        F247   1.358       .  S
C244        H248   1.082       .  S
C249        C250   1.400       .  A
C249        C254   1.403       .  A
C249        H259   1.083       .  S
C250        C255   1.500       .  S
C250        C251   1.412       .  A
C251        C252   1.415       .  A
C251        F256   1.357       .  S
C252        C253   1.408       .  A
C252        H257   1.083       .  S
C253        C254   1.417       .  A
C254        F258   1.358       .  S
C255        C260   1.409       .  A
C255        C264   1.404       .  A
C260        C261   1.409       .  A
C260        F265   1.357       .  S
C261        C262   1.408       .  A
C261        H266   1.083       .  S
C262        C263   1.415       .  A
C263        C264   1.408       .  A
C263        F267   1.357       .  S
C264        H268   1.083       .  S
C269        C270   1.402       .  A
C269        C274   1.393       .  A
C269        H279   1.084       .  S
C270        C275   1.466       .  S
C270        C271   1.404       .  A
C271        C272   1.393       .  A
C271        F276   1.358       .  S
C272        C273   1.406       .  A
C272        H277   1.083       .  S
C273        C274   1.405       .  A
C274        F278   1.356       .  S
C275        C280   1.404       .  A
C275        C284   1.400       .  A
C280        C281   1.401       .  A
C280        F285   1.357       .  S
C281        C282   1.405       .  A
C281        H286   1.083       .  S
C282        C283   1.403       .  A
C283        C284   1.383       .  A
C283        F287   1.358       .  S
C284        H288   1.084       .  S
C289        C290   1.397       .  A
C289        C294   1.387       .  A
C289        H299   1.084       .  S
C290        C295   1.462       .  S
C290        C291   1.403       .  A
C291        C292   1.397       .  A
C291        F296   1.357       .  S
C292        C293   1.405       .  A
C292        H297   1.083       .  S
C293        C294   1.408       .  A
C294        F298   1.358       .  S
C295        C300   1.402       .  A
C295        C304   1.397       .  A
C300        C301   1.396       .  A
C300        F305   1.358       .  S
C301        C302   1.406       .  A
C301        H306   1.083       .  S
C302        C303   1.408       .  A
C303        C304   1.392       .  A
C303        F307   1.357       .  S
C304        H308   1.083       .  S
C309        C310   1.412       .  A
C309        C314   1.409       .  A
C309        H319   1.083   1_655  S
C310        C315   1.498       .  S
C310        C311   1.406       .  A
C311        C312   1.396       .  A
C311        F316   1.357       .  S
C312        C313   1.407       .  A
C312        H317   1.083       .  S
C313        C314   1.407       .  A
C314        F318   1.357       .  S
C315        C320   1.409   1_655  A
C315        C324   1.409       .  A
C320        C321   1.404       .  A
C320        F325   1.357       .  S
C321        C322   1.407   1_455  A
C321        H326   1.083       .  S
C322        C323   1.406       .  A
C323        C324   1.402       .  A
C323        F327   1.357       .  S
C324        H328   1.083       .  S
C329        C330   1.401       .  A
C329        C334   1.397       .  A
C329        H339   1.083       .  S
C330        C335   1.467       .  S
C330        C331   1.402       .  A
C331        C332   1.391       .  A
C331        F336   1.358       .  S
C332        C333   1.404       .  A
C332        H337   1.083       .  S
C333        C334   1.409       .  A
C334        F338   1.357       .  S
C335        C340   1.403       .  A
C335        C344   1.401       .  A
C340        C341   1.394       .  A
C340        F345   1.358       .  S
C341        C342   1.405       .  A
C341        H346   1.083       .  S
C342        C343   1.405       .  A
C343        C344   1.391       .  A
C343        F347   1.357       .  S
C344        H348   1.084       .  S
C349        C350   1.400       .  A
C349        C354   1.397       .  A
C349        H359   1.083       .  S
C350        C355   1.486       .  S
C350        C351   1.411       .  A
C351        C352   1.404       .  A
C351        F356   1.357       .  S
C352        C353   1.402       .  A
C352        H357   1.083       .  S
C353        C354   1.411       .  A
C354        F358   1.358       .  S
C355        C360   1.410       .  A
C355        C364   1.398       .  A
C360        C361   1.407       .  A
C360        F365   1.357       .  S
C361        C362   1.406       .  A
C361        H366   1.083       .  S
C362        C363   1.416       .  A
C363        C364   1.396       .  A
C363        F367   1.358       .  S
C364        H368   1.084       .  S
C369        C370   1.400       .  A
C369        C374   1.386       .  A
C369        H379   1.084       .  S
C370        C375   1.469       .  S
C370        C371   1.405       .  A
C371        C372   1.397       .  A
C371        F376   1.357       .  S
C372        C373   1.405       .  A
C372        H377   1.083       .  S
C373        C374   1.405       .  A
C374        F378   1.358       .  S
C375        C380   1.405       .  A
C375        C384   1.401       .  A
C380        C381   1.390       .  A
C380        F385   1.358       .  S
C381        C382   1.401       .  A
C381        H386   1.083       .  S
C382        C383   1.409       .  A
C383        C384   1.397       .  A
C383        F387   1.358       .  S
C384        H388   1.083       .  S
C389        C390   1.400       .  A
C389        C394   1.391       .  A
C389        H399   1.084       .  S
C390        C395   1.474       .  S
C390        C391   1.406       .  A
C391        C392   1.400       .  A
C391        F396   1.357       .  S
C392        C393   1.404       .  A
C392        H397   1.083       .  S
C393        C394   1.408       .  A
C394        F398   1.358       .  S
C395        C400   1.404       .  A
C395        C404   1.404       .  A
C400        C401   1.392       .  A
C400        F405   1.357       .  S
C401        C402   1.403       .  A
C401        H406   1.083       .  S
C402        C403   1.409       .  A
C403        C404   1.399       .  A
C403        F407   1.358       .  S
C404        H408   1.083       .  S
C409        C410   1.404       .  A
C409        C414   1.406       .  A
C409        H419   1.093       .  S
C410        C415   1.504       .  S
C410        C411   1.411       .  A
C411        C412   1.405       .  A
C411        F416   1.357       .  S
C412        C413   1.411       .  A
C412        H417   1.092       .  S
C413        C414   1.418       .  A
C414        F418   1.357       .  S
C415        C420   1.415       .  A
C415        C424   1.402       .  A
C420        C421   1.415       .  A
C420        F425   1.357       .  S
C421        C422   1.408       .  A
C421        H426   1.084       .  S
C422        C423   1.414       .  A
C423        C424   1.400       .  A
C423        F427   1.357       .  S
C424        H428   1.081       .  S
C429        C430   1.402       .  A
C429        C434   1.400       .  A
C429        H439   1.090       .  S
C430        C435   1.493       .  S
C430        C431   1.411       .  A
C431        C432   1.405       .  A
C431        F436   1.357   1_655  S
C432        C433   1.404       .  A
C432        H437   1.075       .  S
C433        C434   1.413       .  A
C434        F438   1.358       .  S
C435        C440   1.408   1_655  A
C435        C444   1.406       .  A
C440        C441   1.403       .  A
C440        F445   1.358       .  S
C441        C442   1.405   1_445  A
C441        H446   1.079       .  S
C442        C443   1.407       .  A
C443        C444   1.404   1_565  A
C443        F447   1.357       .  S
C444        H448   1.084   1_545  S
C449        C450   1.410       .  A
C449        C454   1.407       .  A
C449        H459   1.087       .  S
C450        C455   1.489       .  S
C450        C451   1.403       .  A
C451        C452   1.395       .  A
C451        F456   1.357       .  S
C452        C453   1.408       .  A
C452        H457   1.084       .  S
C453        C454   1.407       .  A
C454        F458   1.357       .  S
C455        C460   1.408       .  A
C455        C464   1.400       .  A
C460        C461   1.401       .  A
C460        F465   1.358       .  S
C461        C462   1.411       .  A
C461        H466   1.091       .  S
C462        C463   1.417       .  A
C463        C464   1.399       .  A
C463        F467   1.356       .  S
C464        H468   1.080       .  S
C469        C470   1.407       .  A
C469        C474   1.404       .  A
C469        H479   1.072       .  S
C470        C475   1.502       .  S
C470        C471   1.412       .  A
C471        C472   1.409       .  A
C471        F476   1.358       .  S
C472        C473   1.406       .  A
C472        H477   1.085       .  S
C473        C474   1.408       .  A
C474        F478   1.357       .  S
C475        C480   1.414       .  A
C475        C484   1.403       .  A
C480        C481   1.408       .  A
C480        F485   1.357       .  S
C481        C482   1.404       .  A
C481        H486   1.087       .  S
C482        C483   1.415       .  A
C483        C484   1.402       .  A
C483        F487   1.358       .  S
C484        H488   1.080       .  S
C489        C490   1.404       .  A
C489        C494   1.393   1_554  A
C489        H499   1.083   1_554  S
C490        C495   1.478       .  S
C490        C491   1.409       .  A
C491        C492   1.394       .  A
C491        F496   1.358       .  S
C492        C493   1.403   1_554  A
C492        H497   1.083       .  S
C493        C494   1.405       .  A
C494        F498   1.357       .  S
C495        C500   1.409       .  A
C495        C504   1.408       .  A
C500        C501   1.385       .  A
C500        F505   1.358   1_554  S
C501        C502   1.398       .  A
C501        H506   1.084       .  S
C502        C503   1.402       .  A
C503        C504   1.399       .  A
C503        F507   1.357       .  S
C504        H508   1.083       .  S
C509        C510   1.400   1_556  A
C509        C514   1.390   1_556  A
C509        H519   1.083       .  S
C510        C515   1.466   1_554  S
C510        C511   1.405       .  A
C511        C512   1.396       .  A
C511        F516   1.358       .  S
C512        C513   1.402       .  A
C512        H517   1.083       .  S
C513        C514   1.404       .  A
C514        F518   1.358   1_554  S
C515        C520   1.403   1_556  A
C515        C524   1.400       .  A
C520        C521   1.393   1_554  A
C520        F525   1.358       .  S
C521        C522   1.404       .  A
C521        H526   1.083       .  S
C522        C523   1.407       .  A
C523        C524   1.392       .  A
C523        F527   1.358       .  S
C524        H528   1.084       .  S
C529        C530   1.413   1_455  A
C529        C534   1.413       .  A
C529        H539   1.081       .  S
C530        C535   1.516       .  S
C530        C531   1.414       .  A
C531        C532   1.406       .  A
C531        F536   1.357       .  S
C532        C533   1.407       .  A
C532        H537   1.084       .  S
C533        C534   1.410   1_655  A
C534        F538   1.357       .  S
C535        C540   1.415   1_655  A
C535        C544   1.407       .  A
C540        C541   1.411       .  A
C540        F545   1.356       .  S
C541        C542   1.411   1_455  A
C541        H546   1.086       .  S
C542        C543   1.418       .  A
C543        C544   1.404       .  A
C543        F547   1.357   1_545  S
C544        H548   1.086       .  S
C549        C550   1.412       .  A
C549        C554   1.409       .  A
C549        H559   1.083       .  S
C550        C555   1.489   1_556  S
C550        C551   1.401   1_556  A
C551        C552   1.393   1_554  A
C551        F556   1.357       .  S
C552        C553   1.408       .  A
C552        H557   1.083   1_556  S
C553        C554   1.407       .  A
C554        F558   1.357       .  S
C555        C560   1.401   1_554  A
C555        C564   1.412       .  A
C560        C561   1.394   1_556  A
C560        F565   1.358       .  S
C561        C562   1.410       .  A
C561        H566   1.083   1_554  S
C562        C563   1.406       .  A
C563        C564   1.408       .  A
C563        F567   1.357       .  S
C564        H568   1.083       .  S
C569        C570   1.402       .  A
C569        C574   1.387       .  A
C569        H579   1.083   1_556  S
C570        C575   1.476       .  S
C570        C571   1.409       .  A
C571        C572   1.401       .  A
C571        F576   1.358       .  S
C572        C573   1.403       .  A
C572        H577   1.083       .  S
C573        C574   1.404       .  A
C574        F578   1.358   1_556  S
C575        C580   1.407   1_556  A
C575        C584   1.404       .  A
C580        C581   1.396       .  A
C580        F585   1.358       .  S
C581        C582   1.404       .  A
C581        H586   1.083       .  S
C582        C583   1.407   1_554  A
C583        C584   1.393       .  A
C583        F587   1.358       .  S
C584        H588   1.083       .  S
C589        C590   1.407   1_655  A
C589        C594   1.406       .  A
C589        H599   1.083       .  S
C590        C595   1.488   1_554  S
C590        C591   1.404       .  A
C591        C592   1.400       .  A
C591        F596   1.358   1_554  S
C592        C593   1.410       .  A
C592        H597   1.083       .  S
C593        C594   1.408   1_455  A
C594        F598   1.357       .  S
C595        C600   1.409       .  A
C595        C604   1.401   1_556  A
C600        C601   1.405       .  A
C600        F605   1.357       .  S
C601        C602   1.403       .  A
C601        H606   1.083       .  S
C602        C603   1.415       .  A
C603        C604   1.401   1_556  A
C603        F607   1.358   1_556  S
C604        H608   1.083       .  S
C609        C610   1.400   1_556  A
C609        C614   1.390   1_556  A
C609        H619   1.084       .  S
C610        C615   1.468   1_554  S
C610        C611   1.404       .  A
C611        C612   1.394       .  A
C611        F616   1.357       .  S
C612        C613   1.403       .  A
C612        H617   1.083       .  S
C613        C614   1.408       .  A
C614        F618   1.358   1_554  S
C615        C620   1.403   1_556  A
C615        C624   1.404       .  A
C620        C621   1.389   1_554  A
C620        F625   1.358       .  S
C621        C622   1.403       .  A
C621        H626   1.084   1_556  S
C622        C623   1.405       .  A
C623        C624   1.396       .  A
C623        F627   1.357       .  S
C624        H628   1.083       .  S
C629        C630   1.411       .  A
C629        C634   1.409       .  A
C629        H639   1.083       .  S
C630        C635   1.504   1_556  S
C630        C631   1.409       .  A
C631        C632   1.403       .  A
C631        F636   1.357   1_556  S
C632        C633   1.409       .  A
C632        H637   1.083       .  S
C633        C634   1.408       .  A
C634        F638   1.357       .  S
C635        C640   1.413       .  A
C635        C644   1.408       .  A
C640        C641   1.406       .  A
C640        F645   1.356       .  S
C641        C642   1.403       .  A
C641        H646   1.083       .  S
C642        C643   1.409       .  A
C643        C644   1.403       .  A
C643        F647   1.359       .  S
C644        H648   1.083   1_554  S
C649        C650   1.400       .  A
C649        C654   1.393       .  A
C649        H659   1.083       .  S
C650        C655   1.460   1_554  S
C650        C651   1.401   1_554  A
C651        C652   1.387   1_556  A
C651        F656   1.358       .  S
C652        C653   1.403       .  A
C652        H657   1.083   1_554  S
C653        C654   1.407       .  A
C654        F658   1.357       .  S
C655        C660   1.402       .  A
C655        C664   1.398   1_556  A
C660        C661   1.391       .  A
C660        F665   1.358       .  S
C661        C662   1.403       .  A
C661        H666   1.083       .  S
C662        C663   1.408       .  A
C663        C664   1.390   1_556  A
C663        F667   1.357   1_556  S
C664        H668   1.084       .  S
C669        C670   1.405   1_554  A
C669        C674   1.399       .  A
C669        H679   1.083       .  S
C670        C675   1.469       .  S
C670        C671   1.403       .  A
C671        C672   1.387       .  A
C671        F676   1.358       .  S
C672        C673   1.402   1_556  A
C672        H677   1.083       .  S
C673        C674   1.407       .  A
C674        F678   1.358       .  S
C675        C680   1.402       .  A
C675        C684   1.406       .  A
C680        C681   1.386       .  A
C680        F685   1.358   1_556  S
C681        C682   1.402       .  A
C681        H686   1.084       .  S
C682        C683   1.406       .  A
C683        C684   1.401       .  A
C683        F687   1.357       .  S
C684        H688   1.083       .  S
C689        C690   1.403       .  A
C689        C694   1.400       .  A
C689        H699   1.076       .  S
C690        C695   1.494       .  S
C690        C691   1.411       .  A
C691        C692   1.407       .  A
C691        F696   1.358       .  S
C692        C693   1.407       .  A
C692        H697   1.075       .  S
C693        C694   1.413       .  A
C694        F698   1.358       .  S
C695        C700   1.411       .  A
C695        C704   1.406       .  A
C700        C701   1.404       .  A
C700        F705   1.358       .  S
C701        C702   1.404       .  A
C701        H706   1.085       .  S
C702        C703   1.406       .  A
C703        C704   1.402       .  A
C703        F707   1.358       .  S
C704        H708   1.079       .  S
C709        C710   1.408       .  A
C709        C714   1.404       .  A
C709        H719   1.083       .  S
C710        C715   1.492       .  S
C710        C711   1.408       .  A
C711        C712   1.400       .  A
C711        F716   1.357       .  S
C712        C713   1.402       .  A
C712        H717   1.083       .  S
C713        C714   1.405       .  A
C714        F718   1.358   1_545  S
C715        C720   1.412       .  A
C715        C724   1.400       .  A
C720        C721   1.406       .  A
C720        F725   1.358       .  S
C721        C722   1.404       .  A
C721        H726   1.083       .  S
C722        C723   1.415       .  A
C723        C724   1.400       .  A
C723        F727   1.357       .  S
C724        H728   1.083       .  S
C729        C730   1.406       .  A
C729        C734   1.405       .  A
C729        H739   1.083       .  S
C730        C735   1.510       .  S
C730        C731   1.412       .  A
C731        C732   1.412       .  A
C731        F736   1.357       .  S
C732        C733   1.414       .  A
C732        H737   1.080       .  S
C733        C734   1.416       .  A
C734        F738   1.357   1_545  S
C735        C740   1.412       .  A
C735        C744   1.411       .  A
C740        C741   1.408       .  A
C740        F745   1.357       .  S
C741        C742   1.408       .  A
C741        H746   1.083       .  S
C742        C743   1.410       .  A
C743        C744   1.410       .  A
C743        F747   1.357       .  S
C744        H748   1.083       .  S
C749        C750   1.406       .  A
C749        C754   1.407       .  A
C749        H759   1.083       .  S
C750        C755   1.508       .  S
C750        C751   1.409       .  A
C751        C752   1.409       .  A
C751        F756   1.357       .  S
C752        C753   1.416       .  A
C752        H757   1.079       .  S
C753        C754   1.415       .  A
C754        F758   1.357       .  S
C755        C760   1.414       .  A
C755        C764   1.406       .  A
C760        C761   1.412       .  A
C760        F765   1.357       .  S
C761        C762   1.408       .  A
C761        H766   1.083       .  S
C762        C763   1.414       .  A
C763        C764   1.407       .  A
C763        F767   1.357       .  S
C764        H768   1.083       .  S
C769        C770   1.407       .  A
C769        C774   1.405       .  A
C769        H779   1.083       .  S
C770        C775   1.497       .  S
C770        C771   1.409       .  A
C771        C772   1.404       .  A
C771        F776   1.357       .  S
C772        C773   1.404       .  A
C772        H777   1.083       .  S
C773        C774   1.407       .  A
C774        F778   1.358       .  S
C775        C780   1.405       .  A
C775        C784   1.409       .  A
C780        C781   1.403       .  A
C780        F785   1.358       .  S
C781        C782   1.411       .  A
C781        H786   1.083       .  S
C782        C783   1.408       .  A
C783        C784   1.408       .  A
C783        F787   1.356       .  S
C784        H788   1.083       .  S
C789        C790   1.400       .  A
C789        C794   1.402       .  A
C789        H799   1.083       .  S
C790        C795   1.492       .  S
C790        C791   1.406   1_655  A
C791        C792   1.409       .  A
C791        F796   1.357       .  S
C792        C793   1.412   1_455  A
C792        H797   1.080       .  S
C793        C794   1.419       .  A
C794        F798   1.358       .  S
C795        C800   1.409   1_655  A
C795        C804   1.402       .  A
C800        C801   1.407       .  A
C800        F805   1.357       .  S
C801        C802   1.406   1_455  A
C801        H806   1.083       .  S
C802        C803   1.414       .  A
C803        C804   1.402       .  A
C803        F807   1.358       .  S
C804        H808   1.083       .  S
C809        C810   1.407   1_655  A
C809        C814   1.406       .  A
C809        H819   1.083       .  S
C810        C815   1.487       .  S
C810        C811   1.404       .  A
C811        C812   1.398       .  A
C811        F816   1.357       .  S
C812        C813   1.406       .  A
C812        H817   1.084       .  S
C813        C814   1.406   1_455  A
C814        F818   1.357       .  S
C815        C820   1.402   1_455  A
C815        C824   1.408       .  A
C820        C821   1.399       .  A
C820        F825   1.358       .  S
C821        C822   1.411   1_655  A
C821        H826   1.083       .  S
C822        C823   1.407       .  A
C823        C824   1.406       .  A
C823        F827   1.357       .  S
C824        H828   1.083       .  S
