geometry optimzed in LAMMPS
_audit_creation_date              2020-11-30 
_audit_creation_method            'lammps2cif' 
_symmetry_space_group_name_H-M    'P1' 
_symmetry_Int_Tables_number       1 
_symmetry_cell_setting            triclinic 
loop_ 
_symmetry_equiv_pos_as_xyz 
  x,y,z 
_cell_length_a                    58.71777721 
_cell_length_b                    58.89603381259818 
_cell_length_c                    58.86675355465502 
_cell_angle_alpha                 89.92163359680481 
_cell_angle_beta                  89.90462381289588 
_cell_angle_gamma                 90.03107554083452 
loop_ 
_atom_site_label 
_atom_site_type_symbol 
_atom_site_fract_x 
_atom_site_fract_y 
_atom_site_fract_z 
_atom_site_charge 
O1          O  0.83731424  0.27390216  0.85743335    -0.85100
O2          O  0.82427378  0.31697350  0.86715291    -0.82200
C3          C  0.82461232  0.33741830  0.87321263     0.98300
O4          O  0.84306502  0.34884160  0.87276523    -0.82200
O5          O  0.86878766  0.33204778  0.90861484    -0.84800
C6          C  0.87643936  0.31574845  0.92032213     1.02900
O7          O  0.88510456  0.29845544  0.91099907    -0.77600
O8          O  0.85234595  0.27205943  0.89116636    -0.77800
C9          C  0.83666281  0.26683612  0.87759584     1.02800
O10         O  0.86998728  0.29133680  0.82603461    -0.85100
O11         O  0.85120823  0.33412154  0.83100938    -0.82200
C12         C  0.86977064  0.34433447  0.82810429     0.98400
O13         O  0.88425248  0.34467327  0.84380449    -0.82200
O14         O  0.90921734  0.33103016  0.88056771    -0.84800
C15         C  0.92147023  0.31399685  0.87565401     1.02800
O16         O  0.91266219  0.29497693  0.87128590    -0.77600
O17         O  0.88174714  0.26642684  0.85134058    -0.77800
C18         C  0.88005356  0.27304306  0.83085743     1.02800
Cr19       Cr  0.84741922  0.30445559  0.84699892     1.93700
Cr20       Cr  0.87573441  0.33709305  0.87578398     1.93200
Cr21       Cr  0.88190078  0.28482916  0.88025324     1.39100
O22         O  0.86852607  0.30882964  0.86796437    -1.22900
O23         O  0.71560142  0.13601223  0.83584171    -0.85100
O24         O  0.67178329  0.12491656  0.82461117    -0.82200
C25         C  0.65116983  0.11921823  0.82604959     0.98300
O26         O  0.64064290  0.12023337  0.84495003    -0.82200
O27         O  0.65804713  0.08476761  0.87008981    -0.84800
C28         C  0.67479691  0.07266660  0.87593430     1.02900
O29         O  0.69300021  0.08145795  0.88336794    -0.77600
O30         O  0.71887357  0.10237823  0.85072836    -0.77800
C31         C  0.72375436  0.11631865  0.83524553     1.02800
O32         O  0.69951833  0.16724650  0.86831086    -0.85100
O33         O  0.65550728  0.16161626  0.85151008    -0.82200
C34         C  0.64565295  0.16485038  0.87019346     0.98400
O35         O  0.64636301  0.14968366  0.88524540    -0.82200
O36         O  0.66073647  0.11286568  0.90990309    -0.84800
C37         C  0.67829506  0.11721278  0.92153387     1.02800
O38         O  0.69729832  0.12070120  0.91213413    -0.77600
O39         O  0.72434941  0.14181741  0.88042491    -0.77800
C40         C  0.71815451  0.16236821  0.87790444     1.02800
Cr41       Cr  0.68523463  0.14576516  0.84687501     1.93700
Cr42       Cr  0.65363573  0.11752801  0.87689877     1.93200
Cr43       Cr  0.70638731  0.11256896  0.88072502     1.39100
O44         O  0.68179081  0.12505273  0.86844834    -1.22900
O45         O  0.87246990  0.16838293  0.70021884    -0.85100
O46         O  0.85297314  0.16349713  0.65727555    -0.82200
C47         C  0.87101773  0.16571909  0.64600414     0.98300
O48         O  0.88545853  0.14995708  0.64586208    -0.82200
O49         O  0.91027515  0.11307533  0.65992505    -0.84800
C50         C  0.92246376  0.11742032  0.67711086     1.02900
O51         O  0.91373112  0.12141052  0.69623223    -0.77600
O52         O  0.88379960  0.14252634  0.72481998    -0.77800
C53         C  0.88195351  0.16318621  0.71876047     1.02800
O54         O  0.83955757  0.13786714  0.71792846    -0.85100
O55         O  0.82575797  0.12797178  0.67490056    -0.82200
C56         C  0.82584271  0.12150546  0.65454083     0.98400
O57         O  0.84417604  0.12134109  0.64291996    -0.82200
O58         O  0.86993915  0.08530972  0.65924247    -0.84800
C59         C  0.87681764  0.07327276  0.67565229     1.02800
O60         O  0.88496456  0.08225735  0.69337581    -0.77600
O61         O  0.85336290  0.10364247  0.71991629    -0.77800
C62         C  0.83856551  0.11796023  0.72561578     1.02800
Cr63       Cr  0.84944953  0.14772311  0.68711917     1.93700
Cr64       Cr  0.87688284  0.11811928  0.65418231     1.93200
Cr65       Cr  0.88297065  0.11344775  0.70661987     1.39100
O66         O  0.86998334  0.12616286  0.68257548    -1.22900
O67         O  0.67576239  0.35850588  0.80016935    -0.85100
O68         O  0.66954351  0.34031472  0.84327433    -0.82200
C69         C  0.67299359  0.35842439  0.85404614     0.98300
O70         O  0.65812325  0.37378126  0.85410523    -0.82200
O71         O  0.62217600  0.40033223  0.84001205    -0.84800
C72         C  0.62846049  0.41238621  0.82319229     1.02900
O73         O  0.63309726  0.40333458  0.80436318    -0.77600
O74         O  0.65074982  0.37138942  0.77547541    -0.77800
C75         C  0.67127225  0.36840080  0.78166993     1.02800
O76         O  0.64232073  0.32813216  0.78311523    -0.85100
O77         O  0.63197769  0.31518759  0.82618138    -0.82200
C78         C  0.62621759  0.31556374  0.84675600     0.98400
O79         O  0.62768810  0.33388608  0.85819091    -0.82200
O80         O  0.59315246  0.36041953  0.84085172    -0.84800
C81         C  0.58164551  0.36963091  0.82530800     1.02800
O82         O  0.59128156  0.37872398  0.80830836    -0.77600
O83         O  0.60921054  0.34478468  0.78139843    -0.77800
C84         C  0.62215885  0.32866322  0.77591126     1.02800
Cr85       Cr  0.65344449  0.33726868  0.81359353     1.93700
Cr86       Cr  0.62590741  0.36659669  0.84625544     1.93200
Cr87       Cr  0.62192636  0.37346353  0.79419159     1.39100
O88         O  0.63360907  0.35932771  0.81803647    -1.22900
O89         O  0.78717604  0.32796032  0.64317315    -0.85100
O90         O  0.83085408  0.31588498  0.63543866    -0.82200
C91         C  0.85139722  0.31670707  0.62955237     0.98300
O92         O  0.86253799  0.33524178  0.63066359    -0.82200
O93         O  0.84560420  0.35962975  0.59458499    -0.84800
C94         C  0.83044047  0.36855760  0.58236589     1.02900
O95         O  0.81312134  0.37783179  0.59129779    -0.77600
O96         O  0.78612206  0.34386343  0.60960529    -0.77800
C97         C  0.78050373  0.32796480  0.62280932     1.02800
O98         O  0.80238823  0.36053533  0.67595202    -0.85100
O99         O  0.84615368  0.34350787  0.67226018    -0.82200
C100        C  0.85600099  0.36230378  0.67497716     0.98400
O101        O  0.85692252  0.37633355  0.65889444    -0.82200
O102        O  0.84319869  0.40087679  0.62180855    -0.84800
C103        C  0.82619241  0.41252660  0.62836196     1.02800
O104        O  0.80743868  0.40309691  0.63267587    -0.77600
O105        O  0.77815449  0.37149936  0.64971613    -0.77800
C106        C  0.78380494  0.36974241  0.67047745     1.02800
Cr107      Cr  0.81706646  0.33861752  0.65522235     1.93700
Cr108      Cr  0.85006326  0.36743349  0.62707056     1.93200
Cr109      Cr  0.79800307  0.37307329  0.62167362     1.39100
O110        O  0.82174055  0.35979863  0.63446721    -1.22900
O111        O  0.64231374  0.21170439  0.66485246    -0.85100
O112        O  0.63526017  0.16784325  0.67769864    -0.82200
C113        C  0.63046495  0.14703608  0.67694584     0.98300
O114        O  0.63104913  0.13634864  0.65819833    -0.82200
O115        O  0.59449451  0.15394735  0.63353342    -0.84800
C116        C  0.58277732  0.16899848  0.62365195     1.02900
O117        O  0.59237220  0.18554840  0.61373608    -0.77600
O118        O  0.60939087  0.21348697  0.64747982    -0.77800
C119        C  0.62216182  0.21902813  0.66375997     1.02800
O120        O  0.67612905  0.19696662  0.63319075    -0.85100
O121        O  0.67249199  0.15339615  0.65014436    -0.82200
C122        C  0.67499244  0.14212193  0.63212643     0.98400
O123        O  0.65934364  0.14152587  0.61753638    -0.82200
O124        O  0.62195660  0.15526490  0.59275799    -0.84800
C125        C  0.62971278  0.17144490  0.58081191     1.02800
O126        O  0.63478785  0.19015837  0.58978510    -0.77600
O127        O  0.65014293  0.22075759  0.62093525    -0.77800
C128        C  0.67084927  0.21528417  0.62340839     1.02800
Cr129      Cr  0.65504156  0.18209047  0.65480644     1.93700
Cr130      Cr  0.62726355  0.14887650  0.62609523     1.93200
Cr131      Cr  0.62249400  0.20065071  0.61904762     1.39100
O132        O  0.63471788  0.17719547  0.63336758    -1.22900
O133        O  0.17455795  0.12773929  0.70817094    -0.85100
O134        O  0.17223720  0.14329738  0.66408981    -0.82200
C135        C  0.17593781  0.12462336  0.65426099     0.98300
O136        O  0.16057640  0.10970768  0.65352977    -0.82200
O137        O  0.12331167  0.08428947  0.66643758    -0.84800
C138        C  0.12998230  0.07282397  0.68339539     1.02900
O139        O  0.13447110  0.08236296  0.70197953    -0.77600
O140        O  0.14841206  0.11509766  0.73175205    -0.77800
C141        C  0.16913993  0.11801022  0.72648585     1.02800
O142        O  0.13934940  0.15849569  0.72117070    -0.85100
O143        O  0.13311121  0.16986558  0.67679410    -0.82200
C144        C  0.12900681  0.16816352  0.65590769     0.98400
O145        O  0.13119778  0.14918751  0.64586490    -0.82200
O146        O  0.09506762  0.12398816  0.66282591    -0.84800
C147        C  0.08303512  0.11510613  0.67825135     1.02800
O148        O  0.09208239  0.10546199  0.69519926    -0.77600
O149        O  0.10696310  0.14018024  0.72221802    -0.77800
C150        C  0.11879868  0.15722900  0.72733316     1.02800
Cr151      Cr  0.15339822  0.14817749  0.69219463     1.93700
Cr152      Cr  0.12802141  0.11741512  0.65917571     1.93200
Cr153      Cr  0.12141798  0.11180904  0.71099545     1.39100
O154        O  0.13409067  0.12576531  0.68745530    -1.22900
O155        O  0.30476778  0.16328209  0.86640897    -0.85100
O156        O  0.34934659  0.15919838  0.85151572    -0.82200
C157        C  0.35916898  0.16158768  0.87036888     0.98300
O158        O  0.35932233  0.14550666  0.88450935    -0.82200
O159        O  0.34415087  0.10813258  0.90824779    -0.84800
C160        C  0.32755320  0.11569991  0.91971678     1.02900
O161        O  0.30907671  0.12092000  0.91020088    -0.77600
O162        O  0.28024324  0.13731978  0.87738812    -0.77800
C163        C  0.28571772  0.15798312  0.87484557     1.02800
O164        O  0.29122834  0.13018014  0.83384252    -0.85100
O165        O  0.33547063  0.12240143  0.82302380    -0.82200
C166        C  0.35616049  0.11723159  0.82472519     0.98400
O167        O  0.36598638  0.11738712  0.84394847    -0.82200
O168        O  0.34693459  0.08095836  0.86782669    -0.84800
C169        C  0.33135464  0.06931766  0.87709604     1.02800
O170        O  0.31413805  0.07895075  0.88580750    -0.77600
O171        O  0.28811057  0.09718338  0.85086749    -0.77800
C172        C  0.28331331  0.11030396  0.83460635     1.02800
Cr173      Cr  0.32054650  0.14217637  0.84543333     1.93700
Cr174      Cr  0.35204459  0.11361001  0.87540649     1.93200
Cr175      Cr  0.29981473  0.10942934  0.88009230     1.39100
O176        O  0.32412515  0.12152229  0.86695552    -1.22900
O177        O  0.14209033  0.27292615  0.83550304    -0.85100
O178        O  0.13349438  0.31612914  0.82325382    -0.82200
C179        C  0.12793894  0.33668136  0.82379040     0.98300
O180        O  0.12931794  0.34788153  0.84221208    -0.82200
O181        O  0.09404668  0.32968425  0.86814455    -0.84800
C182        C  0.08283488  0.31434647  0.87820038     1.02900
O183        O  0.09293554  0.29800921  0.88799563    -0.77600
O184        O  0.10986712  0.27080111  0.85413445    -0.77800
C185        C  0.12188542  0.26575308  0.83716023     1.02800
O186        O  0.17688582  0.28862530  0.86584479    -0.85100
O187        O  0.17151724  0.33218394  0.84933952    -0.82200
C188        C  0.17454786  0.34246697  0.86787376     0.98400
O189        O  0.15879716  0.34331009  0.88239153    -0.82200
O190        O  0.12209915  0.32913427  0.90805967    -0.84800
C191        C  0.12977232  0.31302878  0.92014581     1.02800
O192        O  0.13592724  0.29462056  0.91116869    -0.77600
O193        O  0.15179366  0.26435925  0.87916780    -0.77800
C194        C  0.17232399  0.26997583  0.87534050     1.02800
Cr195      Cr  0.15456628  0.30288951  0.84520270     1.93700
Cr196      Cr  0.12674173  0.33552501  0.87460817     1.93200
Cr197      Cr  0.12348941  0.28372361  0.88209056     1.39100
O198        O  0.13478406  0.30737141  0.86736081    -1.22900
O199        O  0.36067159  0.32436269  0.78380444    -0.85100
O200        O  0.36811766  0.31250000  0.82763602    -0.82200
C201        C  0.37301059  0.31341010  0.84837105     0.98300
O202        O  0.37224562  0.33221761  0.85898019    -0.82200
O203        O  0.40893173  0.35639051  0.84120753    -0.84800
C204        C  0.42089345  0.36578286  0.82600824     1.02900
O205        O  0.41173299  0.37499195  0.80886719    -0.77600
O206        O  0.39390489  0.34101427  0.78203091    -0.77800
C207        C  0.38097412  0.32479519  0.77677897     1.02800
O208        O  0.32739461  0.35675149  0.79855650    -0.85100
O209        O  0.33102148  0.34045087  0.84231035    -0.82200
C210        C  0.32831398  0.35924407  0.85214927     0.98400
O211        O  0.34440675  0.37334225  0.85286919    -0.82200
O212        O  0.38214168  0.39732925  0.83908709    -0.84800
C213        C  0.37643033  0.40934596  0.82213035     1.02800
O214        O  0.37088137  0.40026851  0.80357376    -0.77600
O215        O  0.35336994  0.36834549  0.77426247    -0.77800
C216        C  0.33260993  0.36595540  0.77992445     1.02800
Cr217      Cr  0.34833305  0.33519588  0.81344398     1.93700
Cr218      Cr  0.37633394  0.36420485  0.84602323     1.93200
Cr219      Cr  0.38151297  0.37008691  0.79399123     1.39100
O220        O  0.36889817  0.35661153  0.81782156    -1.22900
O221        O  0.19927901  0.35566665  0.67408847    -0.85100
O222        O  0.15471618  0.34094765  0.66876437    -0.82200
C223        C  0.14508731  0.35975549  0.67197057     0.98300
O224        O  0.14538238  0.37463838  0.65652273    -0.82200
O225        O  0.16065498  0.39973885  0.61980492    -0.84800
C226        C  0.17795864  0.41114599  0.62577340     1.02900
O227        O  0.19647978  0.40130995  0.63045562    -0.77600
O228        O  0.22408189  0.36799056  0.64884211    -0.77800
C229        C  0.21821135  0.36473718  0.66938085     1.02800
O230        O  0.21346681  0.32368089  0.64075053    -0.85100
O231        O  0.16915513  0.31377879  0.63129731    -0.82200
C232        C  0.14849690  0.31577149  0.62604840     0.98400
O233        O  0.13875474  0.33503502  0.62687965    -0.82200
O234        O  0.15800080  0.35967726  0.59114818    -0.84800
C235        C  0.17443028  0.36744688  0.57950768     1.02800
O236        O  0.19181592  0.37568820  0.58923419    -0.77600
O237        O  0.21721918  0.34097639  0.60812374    -0.77800
C238        C  0.22149383  0.32433778  0.62092984     1.02800
Cr239      Cr  0.18384615  0.33541218  0.65209319     1.93700
Cr240      Cr  0.15283569  0.36656894  0.62419688     1.93200
Cr241      Cr  0.20539671  0.37048030  0.62011620     1.39100
O242        O  0.18072113  0.35765872  0.63198967    -1.22900
O243        O  0.32708523  0.19285436  0.63367417    -0.85100
O244        O  0.33192258  0.14857498  0.64923484    -0.82200
C245        C  0.32906750  0.13892309  0.63037402     0.98300
O246        O  0.34492102  0.13874731  0.61593569    -0.82200
O247        O  0.38177877  0.15401811  0.59104391    -0.84800
C248        C  0.37496832  0.17099084  0.57957040     1.02900
O249        O  0.36978572  0.18931898  0.58932427    -0.77600
O250        O  0.35277685  0.21752897  0.62220762    -0.77800
C251        C  0.33210731  0.21161728  0.62452669     1.02800
O252        O  0.36047304  0.20730537  0.66570780    -0.85100
O253        O  0.36920528  0.16346362  0.67671476    -0.82200
C254        C  0.37508820  0.14300957  0.67521566     0.98400
O255        O  0.37416690  0.13270669  0.65622123    -0.82200
O256        O  0.40968754  0.15143850  0.63143007    -0.84800
C257        C  0.42137272  0.16709919  0.62249990     1.02800
O258        O  0.41178632  0.18429501  0.61379159    -0.77600
O259        O  0.39362581  0.20990766  0.64894644    -0.77800
C260        C  0.38066832  0.21456580  0.66540522     1.02800
Cr261      Cr  0.34869958  0.17769214  0.65458266     1.93700
Cr262      Cr  0.37698987  0.14623323  0.62431657     1.93200
Cr263      Cr  0.38113029  0.19838361  0.61959784     1.39100
O264        O  0.36909236  0.17408973  0.63272690    -1.22900
O265        O  0.28890958  0.84958442  0.83729346    -0.85100
O266        O  0.33311261  0.85770865  0.82740573    -0.82200
C267        C  0.35373064  0.86307834  0.82915769     0.98300
O268        O  0.36397103  0.86129960  0.84815476    -0.82200
O269        O  0.34548617  0.89642441  0.87348167    -0.84800
C270        C  0.32962595  0.90817632  0.88198839     1.02900
O271        O  0.31231035  0.89867915  0.89067161    -0.77600
O272        O  0.28700397  0.88213642  0.85497994    -0.77800
C273        C  0.28216941  0.86988670  0.83815017     1.02800
O274        O  0.30250027  0.81518573  0.86881249    -0.85100
O275        O  0.34705405  0.81950610  0.85374264    -0.82200
C276        C  0.35637300  0.81571087  0.87261467     0.98400
O277        O  0.35652610  0.83095363  0.88764082    -0.82200
O278        O  0.34156499  0.86744418  0.91322639    -0.84800
C279        C  0.32409086  0.86095349  0.92424330     1.02800
O280        O  0.30582751  0.85635003  0.91407831    -0.77600
O281        O  0.27795251  0.84086523  0.88044654    -0.77800
C282        C  0.28369320  0.82026842  0.87788743     1.02800
Cr283      Cr  0.31823335  0.83691138  0.84859516     1.93700
Cr284      Cr  0.34992752  0.86345248  0.87998764     1.93200
Cr285      Cr  0.29765983  0.86861992  0.88403473     1.39100
O286        O  0.32196436  0.85647141  0.87100292    -1.22900
O287        O  0.16979592  0.70377715  0.86371657    -0.85100
O288        O  0.17807415  0.65913033  0.87290771    -0.82200
C289        C  0.17551496  0.63834881  0.87706867     0.98300
O290        O  0.15591062  0.62925205  0.87584341    -0.82200
O291        O  0.13200139  0.64850535  0.91191458    -0.84800
C292        C  0.12567376  0.66518726  0.92391808     1.02900
O293        O  0.11767375  0.68297357  0.91482351    -0.77600
O294        O  0.15221439  0.70789145  0.89614390    -0.77800
C295        C  0.16884306  0.71211883  0.88334682     1.02800
O296        O  0.13764376  0.69107316  0.83015866    -0.85100
O297        O  0.15071674  0.64615007  0.83488551    -0.82200
C298        C  0.13163288  0.63697132  0.83148144     0.98400
O299        O  0.11642428  0.63794480  0.84660766    -0.82200
O300        O  0.09209160  0.65314661  0.88386627    -0.84800
C301        C  0.08129369  0.67094409  0.87850857     1.02800
O302        O  0.09162379  0.68911244  0.87396212    -0.77600
O303        O  0.12525706  0.71557530  0.85560793    -0.77800
C304        C  0.12852019  0.70985792  0.83507115     1.02800
Cr305      Cr  0.15720259  0.67476152  0.85202516     1.93700
Cr306      Cr  0.12482780  0.64433929  0.87900150     1.93200
Cr307      Cr  0.12261930  0.69682579  0.88413561     1.39100
O308        O  0.13468382  0.67204393  0.87186153    -1.22900
O309        O  0.14687864  0.82763602  0.72216572    -0.85100
O310        O  0.13878985  0.81619700  0.67822530    -0.82200
C311        C  0.13304283  0.81741490  0.65768531     0.98300
O312        O  0.13365437  0.83630807  0.64715034    -0.82200
O313        O  0.09717518  0.86006911  0.66503389    -0.84800
C314        C  0.08507515  0.86851377  0.68060231     1.02900
O315        O  0.09411940  0.87714146  0.69810973    -0.77600
O316        O  0.11311645  0.84308873  0.72426382    -0.77800
C317        C  0.12662908  0.82724943  0.72925554     1.02800
O318        O  0.17906622  0.86096233  0.70734114    -0.85100
O319        O  0.17523940  0.84461617  0.66344857    -0.82200
C320        C  0.17764073  0.86334183  0.65338512     0.98400
O321        O  0.16163357  0.87753390  0.65335104    -0.82200
O322        O  0.12388208  0.90108440  0.66793092    -0.84800
C323        C  0.12999398  0.91261806  0.68504691     1.02800
O324        O  0.13492506  0.90309707  0.70353458    -0.77600
O325        O  0.15294131  0.87149047  0.73195800    -0.77800
C326        C  0.17365750  0.87030894  0.72586318     1.02800
Cr327      Cr  0.15843656  0.83900490  0.69245851     1.93700
Cr328      Cr  0.12973146  0.86811475  0.66042901     1.93200
Cr329      Cr  0.12464919  0.87269152  0.71261783     1.39100
O330        O  0.13737719  0.86001046  0.68848375    -1.22900
O331        O  0.33611959  0.63119013  0.78605490    -0.85100
O332        O  0.32408292  0.62169785  0.82961105    -0.82200
C333        C  0.32500827  0.61596643  0.85015146     0.98300
O334        O  0.34383369  0.61663164  0.86089474    -0.82200
O335        O  0.36905208  0.58117498  0.84265018    -0.84800
C336        C  0.37747259  0.56976468  0.82653957     1.02900
O337        O  0.38657544  0.57941862  0.80956953    -0.77600
O338        O  0.35307228  0.59830320  0.78295952    -0.77800
C339        C  0.33688129  0.61139200  0.77792913     1.02800
O340        O  0.36835842  0.66379781  0.80238112    -0.85100
O341        O  0.35153199  0.65852998  0.84581880    -0.82200
C342        C  0.37050949  0.66148537  0.85531331     0.98400
O343        O  0.38475724  0.64554018  0.85579855    -0.82200
O344        O  0.40956603  0.60882103  0.84128559    -0.84800
C345        C  0.42134783  0.61589841  0.82464171     1.02800
O346        O  0.41204391  0.62098830  0.80608773    -0.77600
O347        O  0.38051908  0.63887891  0.77739186    -0.77800
C348        C  0.37829246  0.65926033  0.78394321     1.02800
Cr349      Cr  0.34670906  0.64225347  0.81629674     1.93700
Cr350      Cr  0.37614752  0.61367936  0.84816115     1.93200
Cr351      Cr  0.38201950  0.61019874  0.79591948     1.39100
O352        O  0.36831511  0.62174446  0.82011199    -1.22900
O353        O  0.37030826  0.79178764  0.68047635    -0.85100
O354        O  0.35500682  0.83583466  0.67568659    -0.82200
C355        C  0.37377950  0.84586847  0.67824319     0.98300
O356        O  0.38826424  0.84571579  0.66241471    -0.82200
O357        O  0.41244076  0.83055065  0.62529549    -0.84800
C358        C  0.42408215  0.81350632  0.63138558     1.02900
O359        O  0.41460604  0.79500073  0.63648266    -0.77600
O360        O  0.38241161  0.76701112  0.65527752    -0.77800
C361        C  0.37982731  0.77318658  0.67573956     1.02800
O362        O  0.33746082  0.77705722  0.64795715    -0.85100
O363        O  0.32693358  0.82117841  0.63894664    -0.82200
C364        C  0.32847626  0.84174819  0.63339959     0.98400
O365        O  0.34763118  0.85184269  0.63378814    -0.82200
O366        O  0.37186819  0.83270642  0.59775621    -0.84800
C367        C  0.37930534  0.81617274  0.58620543     1.02800
O368        O  0.38820852  0.79909888  0.59578023    -0.77600
O369        O  0.35450763  0.77311982  0.61518036    -0.77800
C370        C  0.33810763  0.76868073  0.62828454     1.02800
Cr371      Cr  0.34922220  0.80676052  0.65912663     1.93700
Cr372      Cr  0.37937514  0.83806392  0.63045340     1.93200
Cr373      Cr  0.38391768  0.78559313  0.62661575     1.39100
O374        O  0.37093200  0.81011439  0.63851789    -1.22900
O375        O  0.20203830  0.66677214  0.63766456    -0.85100
O376        O  0.15824996  0.66208352  0.65479233    -0.82200
C377        C  0.14794285  0.66562991  0.63638621     0.98300
O378        O  0.14714711  0.65026903  0.62155083    -0.82200
O379        O  0.16016528  0.61376003  0.59541969    -0.84800
C380        C  0.17719352  0.61928376  0.58330869     1.02900
O381        O  0.19617993  0.62353344  0.59232911    -0.77600
O382        O  0.22574866  0.64128433  0.62393769    -0.77800
C383        C  0.22043522  0.66187896  0.62765890     1.02800
O384        O  0.21747576  0.63295621  0.66848764    -0.85100
O385        O  0.17372313  0.62410673  0.68079101    -0.82200
C386        C  0.15298986  0.61883041  0.68015857     0.98400
O387        O  0.14188941  0.62024965  0.66162003    -0.82200
O388        O  0.15867389  0.58473035  0.63515294    -0.84800
C389        C  0.17466559  0.57284312  0.62698622     1.02800
O390        O  0.19202462  0.58217242  0.61816066    -0.77600
O391        O  0.21941478  0.60030304  0.65116383    -0.77800
C392        C  0.22479457  0.61288931  0.66756000     1.02800
Cr393      Cr  0.18739524  0.64489684  0.65860077     1.93700
Cr394      Cr  0.15412399  0.61786497  0.62905570     1.93200
Cr395      Cr  0.20641333  0.61280705  0.62246754     1.39100
O396        O  0.18264641  0.62500205  0.63653483    -1.22900
O397        O  0.83032074  0.85590802  0.70064460    -0.85100
O398        O  0.83606450  0.84102897  0.65636968    -0.82200
C399        C  0.83199728  0.86003589  0.64742012     0.98300
O400        O  0.84712179  0.87524462  0.64758111    -0.82200
O401        O  0.88407097  0.90073160  0.66176562    -0.84800
C402        C  0.87765545  0.91209898  0.67887296     1.02900
O403        O  0.87274828  0.90226104  0.69725397    -0.77600
O404        O  0.85527647  0.86925710  0.72514818    -0.77800
C405        C  0.83481334  0.86556471  0.71924863     1.02800
O406        O  0.86440984  0.82497228  0.71540440    -0.85100
O407        O  0.87454090  0.81495663  0.67120143    -0.82200
C408        C  0.87946897  0.81683650  0.65047608     0.98400
O409        O  0.87737510  0.83586157  0.64042877    -0.82200
O410        O  0.91253139  0.86100080  0.65889132    -0.84800
C411        C  0.92415671  0.86921128  0.67494414     1.02800
O412        O  0.91464120  0.87739197  0.69247873    -0.77600
O413        O  0.89657070  0.84319502  0.71942049    -0.77800
C414        C  0.88381564  0.82667574  0.72435657     1.02800
Cr415      Cr  0.85287873  0.83600086  0.68557638     1.93700
Cr416      Cr  0.87965413  0.86753159  0.65423919     1.93200
Cr417      Cr  0.88397031  0.87199998  0.70657950     1.39100
O418        O  0.87240722  0.85861128  0.68222057    -1.22900
O419        O  0.85994058  0.71614452  0.84254583    -0.85100
O420        O  0.86774836  0.67322451  0.82809691    -0.82200
C421        C  0.87248567  0.65245298  0.82765149     0.98300
O422        O  0.87184438  0.64062187  0.84579260    -0.82200
O423        O  0.90830157  0.65644214  0.87136511    -0.84800
C424        C  0.92041409  0.67169046  0.88038088     1.02900
O425        O  0.91147702  0.68827197  0.89068690    -0.77600
O426        O  0.89336918  0.71660584  0.85862525    -0.77800
C427        C  0.88041983  0.72259261  0.84270874     1.02800
O428        O  0.82697478  0.69897077  0.87407538    -0.85100
O429        O  0.83060711  0.65655622  0.85477678    -0.82200
C430        C  0.82794014  0.64485405  0.87253097     0.98400
O431        O  0.84357987  0.64385269  0.88708118    -0.82200
O432        O  0.88112489  0.65621940  0.91221155    -0.84800
C433        C  0.87581471  0.67266754  0.92505691     1.02800
O434        O  0.87075512  0.69180992  0.91691824    -0.77600
O435        O  0.85295554  0.72259956  0.88685743    -0.77800
C436        C  0.83224712  0.71691034  0.88443188     1.02800
Cr437      Cr  0.84783991  0.68575616  0.85154586     1.93700
Cr438      Cr  0.87563579  0.65137813  0.87865886     1.93200
Cr439      Cr  0.88114237  0.70306983  0.88717431     1.39100
O440        O  0.86838261  0.68002717  0.87262826    -1.22900
O441        O  0.71579788  0.82692331  0.85862531    -0.85100
O442        O  0.67223831  0.81503425  0.86698142    -0.82200
C443        C  0.65176020  0.81588239  0.87310523     0.98300
O444        O  0.64081370  0.83450957  0.87222338    -0.82200
O445        O  0.65962472  0.85947220  0.90735783    -0.84800
C446        C  0.67531198  0.86856612  0.91885132     1.02900
O447        O  0.69164549  0.87867137  0.90903284    -0.77600
O448        O  0.71781135  0.84456839  0.89124607    -0.77800
C449        C  0.72281811  0.82795795  0.87882922     1.02800
O450        O  0.70065338  0.85841395  0.82476152    -0.85100
O451        O  0.65672022  0.84209018  0.82977377    -0.82200
C452        C  0.64583261  0.86035082  0.82719427     0.98400
O453        O  0.64534242  0.87486964  0.84290157    -0.82200
O454        O  0.66048731  0.90018207  0.87934889    -0.84800
C455        C  0.67718992  0.91205358  0.87241537     1.02800
O456        O  0.69572247  0.90281293  0.86686292    -0.77600
O457        O  0.72520110  0.87056047  0.85009754    -0.77800
C458        C  0.71957333  0.86734311  0.82953057     1.02800
Cr459      Cr  0.68595097  0.83738949  0.84650382     1.93700
Cr460      Cr  0.65360645  0.86672293  0.87482016     1.93200
Cr461      Cr  0.70573680  0.87313807  0.87838325     1.39100
O462        O  0.68173195  0.85923040  0.86662691    -1.22900
O463        O  0.80049775  0.63093564  0.67297477    -0.85100
O464        O  0.84455161  0.64647614  0.66944588    -0.82200
C465        C  0.85451740  0.62815223  0.67438369     0.98300
O466        O  0.85539099  0.61227144  0.66003093    -0.82200
O467        O  0.84315834  0.58509369  0.62341140    -0.84800
C468        C  0.82621928  0.57339628  0.62998332     1.02900
O469        O  0.80744051  0.58284327  0.63422672    -0.77600
O470        O  0.77741884  0.61597845  0.64762358    -0.77800
C471        C  0.78227083  0.62077220  0.66805363     1.02800
O472        O  0.78713828  0.65968609  0.63672667    -0.85100
O473        O  0.83145022  0.67082346  0.62915903    -0.82200
C474        C  0.85254347  0.66943019  0.62583813     0.98400
O475        O  0.86284149  0.65071712  0.62909965    -0.82200
O476        O  0.84613646  0.62438304  0.59395293    -0.84800
C477        C  0.83093756  0.61491491  0.58210932     1.02800
O478        O  0.81409165  0.60517087  0.59139051    -0.77600
O479        O  0.78607576  0.63989727  0.60536353    -0.77800
C480        C  0.78055689  0.65727076  0.61654512     1.02800
Cr481      Cr  0.81633968  0.65017924  0.65071197     1.93700
Cr482      Cr  0.84984856  0.61864609  0.62706724     1.93200
Cr483      Cr  0.79803686  0.61207224  0.62056508     1.39100
O484        O  0.82134928  0.62679895  0.63270877    -1.22900
O485        O  0.63405729  0.66927929  0.80252234    -0.85100
O486        O  0.65021079  0.66323347  0.84648944    -0.82200
C487        C  0.63116801  0.66536071  0.85603022     0.98300
O488        O  0.61699792  0.64933168  0.85517921    -0.82200
O489        O  0.59382550  0.61207628  0.83909688    -0.84800
C490        C  0.58234836  0.61814297  0.82193035     1.02900
O491        O  0.59199050  0.62330146  0.80351436    -0.77600
O492        O  0.62378887  0.64401272  0.77693766    -0.77800
C493        C  0.62520263  0.66446241  0.78358565     1.02800
O494        O  0.66773270  0.63877798  0.78656174    -0.85100
O495        O  0.67884468  0.62805883  0.82997666    -0.82200
C496        C  0.67757688  0.62138076  0.85022647     0.98400
O497        O  0.65855276  0.62119011  0.86068256    -0.82200
O498        O  0.63473266  0.58526717  0.84140588    -0.84800
C499        C  0.62811544  0.57367978  0.82458432     1.02800
O500        O  0.61992760  0.58322449  0.80711669    -0.77600
O501        O  0.65331324  0.60485192  0.78279286    -0.77800
C502        C  0.66875521  0.61904120  0.77852364     1.02800
Cr503      Cr  0.65600149  0.64817465  0.81669124     1.93700
Cr504      Cr  0.62669896  0.61771887  0.84706263     1.93200
Cr505      Cr  0.62315555  0.61471464  0.79455495     1.39100
O506        O  0.63514256  0.62661885  0.81943196    -1.22900
O507        O  0.67908679  0.78949117  0.63322186    -0.85100
O508        O  0.67461053  0.83366321  0.64888018    -0.82200
C509        C  0.67736976  0.84334323  0.62998905     0.98300
O510        O  0.66124278  0.84397812  0.61589850    -0.82200
O511        O  0.62413550  0.82895472  0.59158871    -0.84800
C512        C  0.63070328  0.81201660  0.57999335     1.02900
O513        O  0.63587239  0.79356532  0.58952693    -0.77600
O514        O  0.65319996  0.76505312  0.62188403    -0.77800
C515        C  0.67386224  0.77092518  0.62386665     1.02800
O516        O  0.64583574  0.77506403  0.66577437    -0.85100
O517        O  0.63751516  0.81879787  0.67671221    -0.82200
C518        C  0.63154128  0.83923383  0.67554252     0.98400
O519        O  0.63234263  0.84984902  0.65668762    -0.82200
O520        O  0.59662941  0.83101760  0.63239055    -0.84800
C521        C  0.58495618  0.81483583  0.62449255     1.02800
O522        O  0.59441559  0.79815797  0.61481889    -0.77600
O523        O  0.61272730  0.77249517  0.64904324    -0.77800
C524        C  0.62561909  0.76788171  0.66547646     1.02800
Cr525      Cr  0.65774581  0.80462757  0.65442315     1.93700
Cr526      Cr  0.62922311  0.83645213  0.62474908     1.93200
Cr527      Cr  0.62498735  0.78423008  0.61980237     1.39100
O528        O  0.63718094  0.80845658  0.63286626    -1.22900
O529        O  0.86485922  0.26798158  0.16354614    -0.85100
O530        O  0.87307937  0.31082152  0.17801527    -0.82200
C531        C  0.87815436  0.33154882  0.17826509     0.98300
O532        O  0.87611415  0.34359470  0.16036954    -0.82200
O533        O  0.91116453  0.32858726  0.13241998    -0.84800
C534        C  0.92301372  0.31365918  0.12248735     1.02900
O535        O  0.91363359  0.29693064  0.11277536    -0.77600
O536        O  0.89763751  0.26841807  0.14606261    -0.77800
C537        C  0.88540980  0.26202234  0.16240700     1.02800
O538        O  0.83029543  0.28477925  0.13419682    -0.85100
O539        O  0.83430686  0.32716953  0.15398144    -0.82200
C540        C  0.83004002  0.33833786  0.13625077     0.98400
O541        O  0.84498560  0.33998032  0.12092702    -0.82200
O542        O  0.88137102  0.32824697  0.09340725    -0.84800
C543        C  0.87583678  0.31162931  0.08085886     1.02800
O544        O  0.87150663  0.29242119  0.08922439    -0.77600
O545        O  0.85586596  0.26133098  0.12022800    -0.77800
C546        C  0.83522179  0.26671124  0.12382010     1.02800
Cr547      Cr  0.85204938  0.29820740  0.15569440     1.93700
Cr548      Cr  0.87784966  0.33307763  0.12724205     1.93200
Cr549      Cr  0.88371987  0.28151001  0.11825427     1.39100
O550        O  0.87139011  0.30432862  0.13355077    -1.22900
O551        O  0.80520806  0.35507984  0.32894747    -0.85100
O552        O  0.84928840  0.33877763  0.33357313    -0.82200
C553        C  0.85994494  0.35695824  0.32962160     0.98300
O554        O  0.86070833  0.37233347  0.34448633    -0.82200
O555        O  0.84745125  0.39903403  0.38092910    -0.84800
C556        C  0.83089880  0.41087388  0.37376897     1.02900
O557        O  0.81217239  0.40161373  0.36890138    -0.77600
O558        O  0.78185644  0.36905092  0.35457189    -0.77800
C559        C  0.78684163  0.36504630  0.33397524     1.02800
O560        O  0.79080688  0.32536075  0.36465303    -0.85100
O561        O  0.83473674  0.31352856  0.37269419    -0.82200
C562        C  0.85557972  0.31458544  0.37746714     0.98400
O563        O  0.86638060  0.33317975  0.37512192    -0.82200
O564        O  0.84908720  0.35960678  0.41011957    -0.84800
C565        C  0.83401601  0.36972493  0.42161361     1.02800
O566        O  0.81718178  0.37905344  0.41189902    -0.77600
O567        O  0.78932790  0.34442418  0.39649968    -0.77800
C568        C  0.78386573  0.32733136  0.38483050     1.02800
Cr569      Cr  0.82046361  0.33499140  0.35137477     1.93700
Cr570      Cr  0.85381955  0.36544784  0.37708631     1.93200
Cr571      Cr  0.80193367  0.37243888  0.38210025     1.39100
O572        O  0.82538742  0.35772248  0.37030460    -1.22900
O573        O  0.83108843  0.13093388  0.29822713    -0.85100
O574        O  0.83628704  0.14462023  0.34255057    -0.82200
C575        C  0.83161626  0.12563872  0.35137486     0.98300
O576        O  0.84641065  0.11016163  0.35187839    -0.82200
O577        O  0.88216108  0.08333179  0.33793186    -0.84800
C578        C  0.87441866  0.07213459  0.32126183     1.02900
O579        O  0.86964817  0.08201605  0.30287873    -0.77600
O580        O  0.85540515  0.11591535  0.27405933    -0.77800
C581        C  0.83518261  0.12102861  0.27969389     1.02800
O582        O  0.86751557  0.15958704  0.28462915    -0.85100
O583        O  0.87646103  0.16956201  0.32895764    -0.82200
C584        C  0.88031024  0.16743091  0.34985462     0.98400
O585        O  0.87752557  0.14828839  0.35946418    -0.82200
O586        O  0.91197116  0.12233769  0.34042373    -0.84800
C587        C  0.92321520  0.11308508  0.32464491     1.02800
O588        O  0.91326131  0.10382557  0.30795490    -0.77600
O589        O  0.89831247  0.13896396  0.28108367    -0.77800
C590        C  0.88716903  0.15664397  0.27654338     1.02800
Cr591      Cr  0.85425495  0.14937156  0.31390641     1.93700
Cr592      Cr  0.87904511  0.11669204  0.34543451     1.93200
Cr593      Cr  0.88331418  0.11125052  0.29338893     1.39100
O594        O  0.87232733  0.12568341  0.31747591    -1.22900
O595        O  0.71434444  0.15715747  0.14208073    -0.85100
O596        O  0.67040125  0.16749585  0.13139685    -0.82200
C597        C  0.64952798  0.16587554  0.12699942     0.98300
O598        O  0.63936525  0.14684802  0.12870305    -0.82200
O599        O  0.65787605  0.12086649  0.09396576    -0.84800
C600        C  0.67444692  0.11325004  0.08254406     1.02900
O601        O  0.69165124  0.10467253  0.09227874    -0.77600
O602        O  0.71788244  0.13893628  0.11001039    -0.77800
C603        C  0.72286449  0.15548731  0.12257886     1.02800
O604        O  0.69911251  0.12694490  0.17608086    -0.85100
O605        O  0.65502913  0.14233337  0.16979043    -0.82200
C606        C  0.64476905  0.12402231  0.17388432     0.98400
O607        O  0.64534061  0.10808861  0.15958711    -0.82200
O608        O  0.66028104  0.08166820  0.12335304    -0.84800
C609        C  0.67741121  0.07028552  0.12981590     1.02800
O610        O  0.69593770  0.08004037  0.13441630    -0.77600
O611        O  0.72384884  0.11330074  0.15144402    -0.77800
C612        C  0.71802460  0.11771656  0.17173156     1.02800
Cr613      Cr  0.68436587  0.14659892  0.15332120     1.93700
Cr614      Cr  0.65283092  0.11496583  0.12697999     1.93200
Cr615      Cr  0.70533470  0.11020531  0.12289311     1.39100
O616        O  0.68089281  0.12372438  0.13424829    -1.22900
O617        O  0.63858175  0.32429771  0.22120260    -0.85100
O618        O  0.63041490  0.31298693  0.17727764    -0.82200
C619        C  0.62664949  0.31434444  0.15632537     0.98300
O620        O  0.62916765  0.33316307  0.14601781    -0.82200
O621        O  0.59395372  0.35908289  0.16406308    -0.84800
C622        C  0.58246375  0.36896190  0.17930373     1.02900
O623        O  0.59230718  0.37878163  0.19580031    -0.77600
O624        O  0.60751474  0.34473837  0.22340831    -0.77800
C625        C  0.61860699  0.32724993  0.22852880     1.02800
O626        O  0.67501612  0.35325613  0.20679825    -0.85100
O627        O  0.67024195  0.33802854  0.16308822    -0.82200
C628        C  0.67465279  0.35678713  0.15366449     0.98400
O629        O  0.65956303  0.37200482  0.15256919    -0.82200
O630        O  0.62280505  0.39860197  0.16580733    -0.84800
C631        C  0.63063592  0.41023785  0.18213333     1.02800
O632        O  0.63619282  0.40076203  0.20046260    -0.77600
O633        O  0.65039667  0.36819313  0.23061287    -0.77800
C634        C  0.67080343  0.36365092  0.22501773     1.02800
Cr635      Cr  0.65216429  0.33386900  0.19174539     1.93700
Cr636      Cr  0.62689292  0.36512470  0.15906601     1.93200
Cr637      Cr  0.62245198  0.37204738  0.21078773     1.39100
O638        O  0.63368389  0.35705113  0.18726705    -1.22900
O639        O  0.67772070  0.19992601  0.36965283    -0.85100
O640        O  0.67411656  0.15765907  0.34936600    -0.82200
C641        C  0.67709531  0.14534372  0.36665036     0.98300
O642        O  0.66144213  0.14316832  0.38118608    -0.82200
O643        O  0.62481643  0.15512331  0.40823776    -0.84800
C644        C  0.63241446  0.17069566  0.42106986     1.02900
O645        O  0.63748461  0.18990055  0.41316681    -0.77600
O646        O  0.65158886  0.22268940  0.38346657    -0.77800
C647        C  0.67236415  0.21761364  0.38047037     1.02800
O648        O  0.64277145  0.21672649  0.34000359    -0.85100
O649        O  0.63587253  0.17433531  0.32437236    -0.82200
C650        C  0.63002450  0.15382860  0.32372289     0.98400
O651        O  0.63163850  0.14132715  0.34125863    -0.82200
O652        O  0.59617354  0.15673400  0.36803428    -0.84800
C653        C  0.58452885  0.17083833  0.37925518     1.02800
O654        O  0.59432410  0.18623165  0.39064408    -0.77600
O655        O  0.61007606  0.21565847  0.35793982    -0.77800
C656        C  0.62212344  0.22245176  0.34160931     1.02800
Cr657      Cr  0.65625896  0.18659393  0.34749344     1.93700
Cr658      Cr  0.62910133  0.15109236  0.37429602     1.93200
Cr659      Cr  0.62423386  0.20198277  0.38513352     1.39100
O660        O  0.63645703  0.17981402  0.36902642    -1.22900
O661        O  0.86527515  0.81690730  0.30399327    -0.85100
O662        O  0.85121622  0.82207476  0.34845687    -0.82200
C663        C  0.87028532  0.81929756  0.35785149     0.98300
O664        O  0.88491984  0.83497049  0.35725344    -0.82200
O665        O  0.90844763  0.87276070  0.34236444    -0.84800
C666        C  0.92001150  0.86655487  0.32535417     1.02900
O667        O  0.91043407  0.86146951  0.30691804    -0.77600
O668        O  0.87791762  0.84226691  0.27949128    -0.77800
C669        C  0.87475250  0.82174680  0.28535846     1.02800
O670        O  0.83258396  0.84980204  0.28996526    -0.85100
O671        O  0.82328535  0.85923979  0.33419933    -0.82200
C672        C  0.82526638  0.86406726  0.35487319     0.98400
O673        O  0.84450671  0.86310444  0.36459926    -0.82200
O674        O  0.86767434  0.89952329  0.34527073    -0.84800
C675        C  0.87437621  0.91136622  0.32858332     1.02800
O676        O  0.88319821  0.90214166  0.31122856    -0.77600
O677        O  0.85006627  0.88227734  0.28561356    -0.77800
C678        C  0.83367941  0.86927653  0.28118455     1.02800
Cr679      Cr  0.84488457  0.83864118  0.31944794     1.93700
Cr680      Cr  0.87570712  0.86695216  0.35023201     1.93200
Cr681      Cr  0.87949160  0.87108272  0.29782417     1.39100
O682        O  0.86683798  0.85904952  0.32241432    -1.22900
O683        O  0.83666681  0.70559622  0.14409411    -0.85100
O684        O  0.82645767  0.66180243  0.13518206    -0.82200
C685        C  0.82790083  0.64123110  0.12986130     0.98300
O686        O  0.84665258  0.63061349  0.13206370    -0.82200
O687        O  0.87220683  0.64863133  0.09689747    -0.84800
C688        C  0.88060567  0.66466709  0.08535789     1.02900
O689        O  0.88949202  0.68180385  0.09490025    -0.77600
O690        O  0.85524096  0.70832663  0.11198746    -0.77800
C691        C  0.83840598  0.71340254  0.12419767     1.02800
O692        O  0.86767796  0.69078750  0.17855062    -0.85100
O693        O  0.85264969  0.64689178  0.17346789    -0.82200
C694        C  0.87188208  0.63819927  0.17725303     0.98400
O695        O  0.88665181  0.63773283  0.16179732    -0.82200
O696        O  0.91204937  0.65147825  0.12536083    -0.84800
C697        C  0.92344705  0.66840250  0.13225589     1.02800
O698        O  0.91372098  0.68682572  0.13704701    -0.77600
O699        O  0.88079601  0.71531282  0.15354091    -0.77800
C700        C  0.87729742  0.70936793  0.17400452     1.02800
Cr701      Cr  0.84757528  0.67591215  0.15638341     1.93700
Cr702      Cr  0.87870280  0.64407884  0.12964140     1.93200
Cr703      Cr  0.88382048  0.69620381  0.12521476     1.39100
O704        O  0.87010891  0.67211508  0.13684709    -1.22900
O705        O  0.70600336  0.85478022  0.17294589    -0.85100
O706        O  0.66240801  0.83804339  0.16849164    -0.82200
C707        C  0.65249266  0.85659630  0.17224805     0.98300
O708        O  0.65208087  0.87176686  0.15711005    -0.82200
O709        O  0.66529944  0.89749482  0.11989678    -0.84800
C710        C  0.68203610  0.90930785  0.12664050     1.02900
O711        O  0.70080688  0.89999646  0.13118844    -0.77600
O712        O  0.73027503  0.86810410  0.14771828    -0.77800
C713        C  0.72421317  0.86516155  0.16821738     1.02800
O714        O  0.72132339  0.82383583  0.13916734    -0.85100
O715        O  0.67721694  0.81194123  0.13048837    -0.82200
C716        C  0.65628420  0.81320384  0.12613110     0.98400
O717        O  0.64582820  0.83204416  0.12775508    -0.82200
O718        O  0.66331235  0.85716085  0.09181364    -0.84800
C719        C  0.67909083  0.86580197  0.07998502     1.02800
O720        O  0.69606815  0.87521822  0.08933842    -0.77600
O721        O  0.72345326  0.84145731  0.10658143    -0.77800
C722        C  0.72853864  0.82481526  0.11904517     1.02800
Cr723      Cr  0.69140719  0.83387173  0.15126728     1.93700
Cr724      Cr  0.65868922  0.86404490  0.12467258     1.93200
Cr725      Cr  0.71082143  0.87013338  0.11956242     1.39100
O726        O  0.68700228  0.85610132  0.13161770    -1.22900
O727        O  0.63547498  0.78738704  0.32617552    -0.85100
O728        O  0.65149797  0.83146917  0.33025136    -0.82200
C729        C  0.63240018  0.84022133  0.32633943     0.98300
O730        O  0.61747174  0.84047249  0.34170616    -0.82200
O731        O  0.59277136  0.82694711  0.37890185    -0.84800
C732        C  0.58153465  0.80935120  0.37380109     1.02900
O733        O  0.59130060  0.79065414  0.37035693    -0.77600
O734        O  0.62379062  0.76310726  0.35223318    -0.77800
C735        C  0.62581485  0.76897388  0.33156428     1.02800
O736        O  0.66780015  0.77306015  0.35887970    -0.85100
O737        O  0.67838612  0.81727422  0.36780409    -0.82200
C738        C  0.67651797  0.83792221  0.37291844     0.98400
O739        O  0.65749422  0.84811491  0.37115762    -0.82200
O740        O  0.63247717  0.83105803  0.40709780    -0.84800
C741        C  0.62596538  0.81470474  0.41942563     1.02800
O742        O  0.61795279  0.79671443  0.41084000    -0.77600
O743        O  0.65182855  0.77087279  0.39224825    -0.77800
C744        C  0.66778798  0.76572923  0.37895363     1.02800
Cr745      Cr  0.65656979  0.80265144  0.34733015     1.93700
Cr746      Cr  0.62573141  0.83460000  0.37416004     1.93200
Cr747      Cr  0.62216721  0.78228126  0.38046202     1.39100
O748        O  0.63466586  0.80650432  0.36759326    -1.22900
O749        O  0.78777142  0.65607488  0.36080220    -0.85100
O750        O  0.83106566  0.66866907  0.37104288    -0.82200
C751        C  0.85164138  0.66793078  0.37683530     0.98300
O752        O  0.86266206  0.64935213  0.37573980    -0.82200
O753        O  0.84348446  0.62423408  0.41045637    -0.84800
C754        C  0.82778194  0.61476551  0.42162281     1.02900
O755        O  0.81151274  0.60475054  0.41163216    -0.77600
O756        O  0.78442171  0.63841536  0.39335122    -0.77800
C757        C  0.77953258  0.65487215  0.38056264     1.02800
O758        O  0.80478569  0.62538373  0.32742103    -0.85100
O759        O  0.84822168  0.64226847  0.33388823    -0.82200
C760        C  0.85820457  0.62356238  0.33095240     0.98400
O761        O  0.85838717  0.60896561  0.34657381    -0.82200
O762        O  0.84351145  0.58353524  0.38287708    -0.84800
C763        C  0.82747298  0.57156124  0.37481304     1.02800
O764        O  0.80891522  0.58063530  0.36913599    -0.77600
O765        O  0.77965339  0.61227885  0.35188762    -0.77800
C766        C  0.78621025  0.61541866  0.33156512     1.02800
Cr767      Cr  0.81829273  0.64644385  0.34976009     1.93700
Cr768      Cr  0.85004861  0.61707167  0.37827530     1.93200
Cr769      Cr  0.79795548  0.61006553  0.38075268     1.39100
O770        O  0.82205573  0.62446592  0.36977677    -1.22900
O771        O  0.67856148  0.62695594  0.20156792    -0.85100
O772        O  0.67347526  0.64059059  0.15691203    -0.82200
C773        C  0.67674814  0.62157248  0.14766484     0.98300
O774        O  0.66141338  0.60658133  0.14817202    -0.82200
O775        O  0.62385776  0.58218655  0.16322596    -0.84800
C776        C  0.63090502  0.57085630  0.18009339     1.02900
O777        O  0.63686049  0.58074333  0.19809410    -0.77600
O778        O  0.65325492  0.61425189  0.22608471    -0.77800
C779        C  0.67379908  0.61760334  0.22028728     1.02800
O780        O  0.64405498  0.65829454  0.21489396    -0.85100
O781        O  0.63523359  0.66762700  0.17046987    -0.82200
C782        C  0.63065155  0.66533239  0.14974611     0.98400
O783        O  0.63237960  0.64606165  0.14027042    -0.82200
O784        O  0.59656752  0.62236101  0.15983524    -0.84800
C785        C  0.58496584  0.61385473  0.17581729     1.02800
O786        O  0.59457425  0.60491901  0.19289457    -0.77600
O787        O  0.61192751  0.63980451  0.21859719    -0.77800
C788        C  0.62414792  0.65686547  0.22278692     1.02800
Cr789      Cr  0.65634642  0.64661493  0.18568940     1.93700
Cr790      Cr  0.62918696  0.61496383  0.15490009     1.93200
Cr791      Cr  0.62504162  0.61090161  0.20703565     1.39100
O792        O  0.63673497  0.62407969  0.18261471    -1.22900
O793        O  0.21406539  0.32479409  0.35689081    -0.85100
O794        O  0.16993003  0.31490797  0.36573184    -0.82200
C795        C  0.14911488  0.31668906  0.37020153     0.98300
O796        O  0.13942484  0.33598924  0.36954534    -0.82200
O797        O  0.15932352  0.35918101  0.40571190    -0.84800
C798        C  0.17528829  0.36759907  0.41741037     1.02900
O799        O  0.19214051  0.37711091  0.40770177    -0.77600
O800        O  0.21780315  0.34270435  0.38926624    -0.77800
C801        C  0.22216595  0.32602314  0.37667275     1.02800
O802        O  0.20009231  0.35671022  0.32312865    -0.85100
O803        O  0.15565758  0.34294845  0.32834631    -0.82200
C804        C  0.14619760  0.36200042  0.32563605     0.98400
O805        O  0.14667362  0.37650375  0.34135293    -0.82200
O806        O  0.16219696  0.40013576  0.37870145    -0.84800
C807        C  0.17883296  0.41140735  0.37083625     1.02800
O808        O  0.19694422  0.40158121  0.36508225    -0.77600
O809        O  0.22503332  0.36870191  0.34820312    -0.77800
C810        C  0.21906270  0.36556014  0.32771668     1.02800
Cr811      Cr  0.18465797  0.33654302  0.34504728     1.93700
Cr812      Cr  0.15388558  0.36730178  0.37325029     1.93200
Cr813      Cr  0.20609514  0.37161735  0.37673797     1.39100
O814        O  0.18160959  0.35853403  0.36515446    -1.22900
O815        O  0.32717000  0.35261694  0.19607236    -0.85100
O816        O  0.33379344  0.33679320  0.15259228    -0.82200
C817        C  0.33044606  0.35549283  0.14264715     0.98300
O818        O  0.34600928  0.37017455  0.14183856    -0.82200
O819        O  0.38157600  0.39668280  0.15656796    -0.84800
C820        C  0.37274898  0.40848050  0.17233632     1.02900
O821        O  0.36637144  0.39919264  0.19051602    -0.77600
O822        O  0.35133163  0.36695818  0.22057177    -0.77800
C823        C  0.33109461  0.36253203  0.21459365     1.02800
O824        O  0.36271250  0.32317775  0.21235464    -0.85100
O825        O  0.37215879  0.31135112  0.16905007    -0.82200
C826        C  0.37789019  0.31202548  0.14851000     0.98400
O827        O  0.37641600  0.33054742  0.13741314    -0.82200
O828        O  0.41054539  0.35698130  0.15691629    -0.84800
C829        C  0.42115245  0.36735288  0.17242563     1.02800
O830        O  0.41041350  0.37753672  0.18809755    -0.77600
O831        O  0.39389048  0.34347276  0.21549414    -0.77800
C832        C  0.38230521  0.32624099  0.22070054     1.02800
Cr833      Cr  0.35035341  0.33271734  0.18214869     1.93700
Cr834      Cr  0.37799245  0.36298521  0.15009334     1.93200
Cr835      Cr  0.37974950  0.37071325  0.20181477     1.39100
O836        O  0.36953985  0.35544689  0.17806314    -1.22900
O837        O  0.36713077  0.21294237  0.33134533    -0.85100
O838        O  0.37355779  0.16848146  0.32064109    -0.82200
C839        C  0.37703607  0.14750073  0.32240747     0.98300
O840        O  0.37510044  0.13773434  0.34160398    -0.82200
O841        O  0.41100655  0.15564660  0.36702550    -0.84800
C842        C  0.42287373  0.17066582  0.37680353     1.02900
O843        O  0.41342049  0.18748596  0.38634985    -0.77600
O844        O  0.39873908  0.21466662  0.35098617    -0.77800
C845        C  0.38743795  0.21962759  0.33347901     1.02800
O846        O  0.33106866  0.20014049  0.36155024    -0.85100
O847        O  0.33405872  0.15604622  0.34677082    -0.82200
C848        C  0.33004423  0.14603009  0.36532349     0.98400
O849        O  0.34508914  0.14536487  0.38060370    -0.82200
O850        O  0.38201904  0.15865546  0.40677729    -0.84800
C851        C  0.37474640  0.17536179  0.41828991     1.02800
O852        O  0.37012373  0.19390135  0.40859938    -0.77600
O853        O  0.35675691  0.22358837  0.37513694    -0.77800
C854        C  0.33614992  0.21832658  0.37157248     1.02800
Cr855      Cr  0.35288708  0.18407931  0.34186304     1.93700
Cr856      Cr  0.37786762  0.15138733  0.37337189     1.93200
Cr857      Cr  0.38384427  0.20309509  0.37917135     1.39100
O858        O  0.37166661  0.17955445  0.36483519    -1.22900
O859        O  0.14273243  0.15393569  0.27505650    -0.85100
O860        O  0.13629541  0.16758673  0.31865428    -0.82200
C861        C  0.13137174  0.16706806  0.33944299     0.98300
O862        O  0.13237661  0.14854049  0.35055307    -0.82200
O863        O  0.09596257  0.12319238  0.33436749    -0.84800
C864        C  0.08397934  0.11316445  0.31968578     1.02900
O865        O  0.09315556  0.10333706  0.30291880    -0.77600
O866        O  0.10939143  0.13741812  0.27498635    -0.77800
C867        C  0.12204823  0.15377223  0.26932965     1.02800
O868        O  0.17663261  0.12244462  0.29001402    -0.85100
O869        O  0.17410553  0.14042424  0.33319654    -0.82200
C870        C  0.17706257  0.12217778  0.34400547     0.98400
O871        O  0.16106431  0.10801160  0.34570919    -0.82200
O872        O  0.12378951  0.08271649  0.33289632    -0.84800
C873        C  0.13069633  0.07058672  0.31646385     1.02800
O874        O  0.13507007  0.07936339  0.29741027    -0.77600
O875        O  0.15013998  0.11061513  0.26656819    -0.77800
C876        C  0.17093827  0.11233031  0.27202631     1.02800
Cr877      Cr  0.15596803  0.14449018  0.30467734     1.93700
Cr878      Cr  0.12881185  0.11617700  0.33884054     1.93200
Cr879      Cr  0.12282667  0.10878500  0.28718842     1.39100
O880        O  0.13569158  0.12310472  0.31029917    -1.22900
O881        O  0.28947854  0.12542507  0.16596147    -0.85100
O882        O  0.33358338  0.11751211  0.17606185    -0.82200
C883        C  0.35452820  0.11376203  0.17441155     0.98300
O884        O  0.36444505  0.11574740  0.15529629    -0.82200
O885        O  0.34513270  0.08057094  0.13009661    -0.84800
C886        C  0.32985397  0.06935791  0.11998685     1.02900
O887        O  0.31332608  0.07940083  0.11038482    -0.77600
O888        O  0.28640956  0.09439179  0.14561883    -0.77800
C889        C  0.28186911  0.10555109  0.16328795     1.02800
O890        O  0.30297053  0.16162296  0.13639065    -0.85100
O891        O  0.34737678  0.15700500  0.14993954    -0.82200
C892        C  0.35703149  0.16070641  0.13106119     0.98400
O893        O  0.35724082  0.14552278  0.11601297    -0.82200
O894        O  0.34281138  0.10920042  0.09056080    -0.84800
C895        C  0.32673087  0.11813502  0.07937943     1.02800
O896        O  0.30835119  0.12343400  0.08906020    -0.77600
O897        O  0.27867104  0.13689141  0.12260309    -0.77800
C898        C  0.28413172  0.15719854  0.12725276     1.02800
Cr899      Cr  0.31868495  0.13901855  0.15536515     1.93700
Cr900      Cr  0.35044482  0.11324661  0.12366746     1.93200
Cr901      Cr  0.29848447  0.10932554  0.11788187     1.39100
O902        O  0.32245342  0.12039383  0.13229863    -1.22900
O903        O  0.17925112  0.29242373  0.13423697    -0.85100
O904        O  0.17441609  0.33691999  0.14772370    -0.82200
C905        C  0.17640269  0.34610892  0.12845265     0.98300
O906        O  0.15990120  0.34620474  0.11481817    -0.82200
O907        O  0.12247173  0.33008311  0.09191739    -0.84800
C908        C  0.13044631  0.31362014  0.08056274     1.02900
O909        O  0.13696122  0.29577149  0.09037501    -0.77600
O910        O  0.15381874  0.26739383  0.12340413    -0.77800
C911        C  0.17440745  0.27316275  0.12635723     1.02800
O912        O  0.14575520  0.27871172  0.16700954    -0.85100
O913        O  0.13787839  0.32275397  0.17672935    -0.82200
C914        C  0.13181661  0.34309970  0.17498621     0.98400
O915        O  0.13226149  0.35310874  0.15585574    -0.82200
O916        O  0.09608169  0.33259978  0.13323204    -0.84800
C917        C  0.08463157  0.31675187  0.12434832     1.02800
O918        O  0.09457660  0.30022185  0.11474681    -0.77600
O919        O  0.11305136  0.27493964  0.14945914    -0.77800
C920        C  0.12586807  0.27052783  0.16600168     1.02800
Cr921      Cr  0.15781358  0.30800579  0.15475625     1.93700
Cr922      Cr  0.12836699  0.33856214  0.12464810     1.93200
Cr923      Cr  0.12545742  0.28648227  0.12038553     1.39100
O924        O  0.13707319  0.31099527  0.13328148    -1.22900
O925        O  0.32636476  0.78630356  0.37435997    -0.85100
O926        O  0.33131049  0.82855557  0.35453527    -0.82200
C927        C  0.32807439  0.83896856  0.37286040     0.98300
O928        O  0.34375914  0.83953252  0.38748603    -0.82200
O929        O  0.38163448  0.82667867  0.41240555    -0.84800
C930        C  0.37718392  0.80994044  0.42520147     1.02900
O931        O  0.37275910  0.79069237  0.41698305    -0.77600
O932        O  0.35154973  0.76180677  0.38744805    -0.77800
C933        C  0.33110507  0.76846666  0.38526996     1.02800
O934        O  0.35718037  0.76787752  0.34223243    -0.85100
O935        O  0.36755352  0.81100267  0.32775032    -0.82200
C936        C  0.37319228  0.83164438  0.32795218     0.98400
O937        O  0.37260139  0.84301120  0.34634708    -0.82200
O938        O  0.40883458  0.82647946  0.37156987    -0.84800
C939        C  0.42081389  0.81004689  0.37857718     1.02800
O940        O  0.41186298  0.79291588  0.38798238    -0.77600
O941        O  0.39094596  0.76560113  0.35718466    -0.77800
C942        C  0.37712495  0.76015740  0.34184537     1.02800
Cr943      Cr  0.34729251  0.79879605  0.35143055     1.93700
Cr944      Cr  0.37606933  0.83182785  0.37897714     1.93200
Cr945      Cr  0.38077074  0.77965230  0.38630644     1.39100
O946        O  0.36834443  0.80341563  0.37242525    -1.22900
O947        O  0.17516826  0.85586010  0.30110986    -0.85100
O948        O  0.16979484  0.84011189  0.34529757    -0.82200
C949        C  0.17359445  0.85913420  0.35420496     0.98300
O950        O  0.15810811  0.87393891  0.35447723    -0.82200
O951        O  0.12149756  0.89929321  0.33990794    -0.84800
C952        C  0.12838707  0.91049450  0.32282664     1.02900
O953        O  0.13270727  0.90070509  0.30429839    -0.77600
O954        O  0.14977695  0.86788487  0.27640060    -0.77800
C955        C  0.17034859  0.86528146  0.28242551     1.02800
O956        O  0.14169269  0.82446173  0.28637639    -0.85100
O957        O  0.13190947  0.81356518  0.33022274    -0.82200
C958        C  0.12638813  0.81523601  0.35079691     0.98400
O959        O  0.12783360  0.83423661  0.36102687    -0.82200
O960        O  0.09266929  0.85984624  0.34289527    -0.84800
C961        C  0.08110712  0.86753896  0.32652217     1.02800
O962        O  0.09068375  0.87588926  0.30912839    -0.77600
O963        O  0.10868173  0.84122876  0.28365280    -0.77800
C964        C  0.12155625  0.82472788  0.27915033     1.02800
Cr965      Cr  0.15311877  0.83524644  0.31611053     1.93700
Cr966      Cr  0.12564228  0.86614069  0.34758662     1.93200
Cr967      Cr  0.12130122  0.87046910  0.29526638     1.39100
O968        O  0.13311238  0.85740392  0.31965077    -1.22900
O969        O  0.30455479  0.81627429  0.14365712    -0.85100
O970        O  0.34944667  0.82171403  0.15647931    -0.82200
C971        C  0.35850952  0.81749006  0.13750619     0.98300
O972        O  0.35746794  0.83195729  0.12174461    -0.82200
O973        O  0.34213891  0.86820943  0.09599590    -0.84800
C974        C  0.32474592  0.86135279  0.08529781     1.02900
O975        O  0.30664921  0.85653808  0.09577952    -0.77600
O976        O  0.27972137  0.84112556  0.13074703    -0.77800
C977        C  0.28559885  0.82076037  0.13465146     1.02800
O978        O  0.29151008  0.85152144  0.17392587    -0.85100
O979        O  0.33617928  0.86100015  0.18209601    -0.82200
C980        C  0.35709886  0.86465299  0.17946553     0.98400
O981        O  0.36619079  0.86266051  0.15994466    -0.82200
O982        O  0.34671487  0.89753398  0.13457173    -0.84800
C983        C  0.33073640  0.90893584  0.12581067     1.02800
O984        O  0.31290682  0.89928513  0.11845713    -0.77600
O985        O  0.28738103  0.88311643  0.15481532    -0.77800
C986        C  0.28311461  0.87110307  0.17206675     1.02800
Cr987      Cr  0.32067156  0.83910300  0.16220292     1.93700
Cr988      Cr  0.35107554  0.86456488  0.12882899     1.93200
Cr989      Cr  0.29863035  0.86918861  0.12594769     1.39100
O990        O  0.32338024  0.85780116  0.13887986    -1.22900
O991        O  0.14592402  0.70242089  0.17297763    -0.85100
O992        O  0.13567919  0.65841623  0.18225279    -0.82200
C993        C  0.12975166  0.63802370  0.18016232     0.98300
O994        O  0.13110794  0.62816122  0.16092932    -0.82200
O995        O  0.09621256  0.64751623  0.13602449    -0.84800
C996        C  0.08451829  0.66434140  0.12959928     1.02900
O997        O  0.09392905  0.68198817  0.12159488    -0.77600
O998        O  0.11310468  0.70611386  0.15607644    -0.77800
C999        C  0.12603176  0.71037134  0.17252336     1.02800
O1000       O  0.17906069  0.68794906  0.14077745    -0.85100
O1001       O  0.17315143  0.64352481  0.15518063    -0.82200
C1002       C  0.17682198  0.63524924  0.13583729     0.98400
O1003       O  0.16135549  0.63574896  0.12106755    -0.82200
O1004       O  0.12502793  0.65125188  0.09622735    -0.84800
C1005       C  0.13087384  0.66884175  0.08518566     1.02800
O1006       O  0.13518413  0.68716935  0.09535976    -0.77600
O1007       O  0.15404527  0.71328434  0.12914528    -0.77800
C1008       C  0.17454068  0.70699126  0.13203431     1.02800
Cr1009     Cr  0.15689526  0.67281031  0.16097814     1.93700
Cr1010     Cr  0.12906154  0.64265100  0.12926925     1.93200
Cr1011     Cr  0.12501236  0.69514071  0.12645262     1.39100
O1012       O  0.13678170  0.67023824  0.13871164    -1.22900
O1013       O  0.36148126  0.65185139  0.21970653    -0.85100
O1014       O  0.37076234  0.66570701  0.17668178    -0.82200
C1015       C  0.37702716  0.66561475  0.15625172     0.98300
O1016       O  0.37661658  0.64730853  0.14471591    -0.82200
O1017       O  0.41222321  0.62175318  0.16215126    -0.84800
C1018       C  0.42377431  0.61271544  0.17781889     1.02900
O1019       O  0.41411235  0.60306200  0.19448033    -0.77600
O1020       O  0.39516750  0.63633728  0.22178210    -0.77800
C1021       C  0.38159749  0.65205785  0.22711962     1.02800
O1022       O  0.32929632  0.62015165  0.20262887    -0.85100
O1023       O  0.33434142  0.63881076  0.15960245    -0.82200
C1024       C  0.33160775  0.62037567  0.14920838     0.98400
O1025       O  0.34764385  0.60622186  0.14833010    -0.82200
O1026       O  0.38449042  0.58106507  0.16234723    -0.84800
C1027       C  0.37740114  0.56883205  0.17867592     1.02800
O1028       O  0.37256288  0.57756513  0.19761727    -0.77600
O1029       O  0.35464155  0.60833282  0.22741187    -0.77800
C1030       C  0.33405901  0.61068619  0.22126790     1.02800
Cr1031     Cr  0.35052396  0.64247440  0.18923008     1.93700
Cr1032     Cr  0.37959711  0.61463766  0.15639820     1.93200
Cr1033     Cr  0.38331683  0.60736920  0.20847513     1.39100
O1034       O  0.37140514  0.62142599  0.18466690    -1.22900
O1035       O  0.20217551  0.62540664  0.32769576    -0.85100
O1036       O  0.15750943  0.63887273  0.33217497    -0.82200
C1037       C  0.14754767  0.61993963  0.33030533     0.98300
O1038       O  0.14776007  0.60599094  0.34654827    -0.82200
O1039       O  0.16370609  0.58288100  0.38392553    -0.84800
C1040       C  0.18007712  0.57143073  0.37582697     1.02900
O1041       O  0.19829626  0.58101580  0.36989873    -0.77600
O1042       O  0.22694909  0.61369905  0.35301111    -0.77800
C1043       C  0.22107188  0.61647214  0.33248263     1.02800
O1044       O  0.21553821  0.65803524  0.36131990    -0.85100
O1045       O  0.17131791  0.66799599  0.36903220    -0.82200
C1046       C  0.15068065  0.66618687  0.37429833     0.98400
O1047       O  0.14099169  0.64687753  0.37410051    -0.82200
O1048       O  0.16115111  0.62394863  0.41038572    -0.84800
C1049       C  0.17718662  0.61548315  0.42192533     1.02800
O1050       O  0.19379759  0.60573545  0.41216441    -0.77600
O1051       O  0.21915441  0.63988740  0.39366499    -0.77800
C1052       C  0.22330996  0.65677331  0.38126200     1.02800
Cr1053     Cr  0.18634954  0.64586231  0.34909040     1.93700
Cr1054     Cr  0.15543635  0.61561098  0.37810527     1.93200
Cr1055     Cr  0.20764756  0.61101352  0.38129562     1.39100
O1056       O  0.18318185  0.62415473  0.36961054    -1.22900
C1057       C  0.28233485  0.60593370  0.25249803     0.20600
C1058       C  0.25981757  0.61198131  0.25761165    -0.39300
C1059       C  0.25313677  0.60900511  0.28027613     0.19600
C1060       C  0.26773578  0.60053594  0.29666276     0.22200
C1061       C  0.29029040  0.59435972  0.29152756    -0.39800
C1062       C  0.29703842  0.59748561  0.26882024     0.21000
N1063       N  0.29343292  0.60990035  0.23294312    -0.33100
C1064       C  0.31547217  0.60438091  0.23685020    -0.10600
C1065       C  0.31834401  0.59617230  0.25894145    -0.29400
N1066       N  0.25786227  0.60127314  0.31729606    -0.46000
C1067       C  0.23689673  0.61037973  0.31399257    -0.05300
C1068       C  0.23329944  0.61525335  0.29108656    -0.22700
H1069       H  0.24866831  0.61955369  0.24509174     0.19100
H1070       H  0.30205067  0.58867921  0.30448253     0.17900
H1071       H  0.33418540  0.59180092  0.26724426     0.14200
H1072       H  0.21861880  0.62340653  0.28354619     0.14100
H1073       H  0.28676493  0.61762066  0.21841441     0.32200
H1074       H  0.26528609  0.59679307  0.33277968     0.35000
C1075       C  0.27616747  0.62365020  0.12554550     0.20600
C1076       C  0.25798087  0.63491440  0.11486981    -0.39300
C1077       C  0.23602579  0.62804831  0.12150024     0.19600
C1078       C  0.23248709  0.61169367  0.13804702     0.22200
C1079       C  0.25065435  0.60027908  0.14854039    -0.39800
C1080       C  0.27258038  0.60665552  0.14141891     0.21000
N1081       N  0.29839606  0.62917964  0.12455805    -0.33100
C1082       C  0.30909439  0.61536630  0.13959480    -0.10600
C1083       C  0.29355163  0.60096422  0.15027810    -0.29400
N1084       N  0.21034698  0.61076505  0.14389893    -0.46000
C1085       C  0.19960361  0.62629142  0.13070309    -0.05300
C1086       C  0.21504288  0.63730722  0.11640703    -0.22700
H1087       H  0.26071933  0.64883559  0.10315387     0.19100
H1088       H  0.24795271  0.58817538  0.16213489     0.17900
H1089       H  0.29677856  0.58990151  0.16461761     0.14200
H1090       H  0.21174376  0.65187895  0.10567857     0.14100
H1091       H  0.30556919  0.64280148  0.11568953     0.32200
H1092       H  0.20323404  0.60137694  0.15720824     0.35000
C1093       C  0.11370699  0.62624708  0.23678096     0.20600
C1094       C  0.10815359  0.63432388  0.25849110    -0.39300
C1095       C  0.11821953  0.62294707  0.27679329     0.19600
C1096       C  0.13263749  0.60460179  0.27383165     0.22200
C1097       C  0.13815546  0.59640903  0.25199471    -0.39800
C1098       C  0.12816903  0.60797746  0.23354304     0.21000
N1099       N  0.11005542  0.63716135  0.21710732    -0.33100
C1100       C  0.12242344  0.62621222  0.20104847    -0.10600
C1101       C  0.13360840  0.60752472  0.21057668    -0.29400
N1102       N  0.14301959  0.59938742  0.29359097    -0.46000
C1103       C  0.13548423  0.61480622  0.30900889    -0.05300
C1104       C  0.11985063  0.62958077  0.29915610    -0.22700
H1105       H  0.09834537  0.64970018  0.26086816     0.19100
H1106       H  0.15081257  0.58328993  0.24949633     0.17900
H1107       H  0.14667134  0.59728660  0.20261875     0.14200
H1108       H  0.11273564  0.64477836  0.30666658     0.14100
H1109       H  0.10194632  0.65284542  0.21524950     0.32200
H1110       H  0.15635019  0.58785695  0.29579987     0.35000
C1111       C  0.25420108  0.76915302  0.12853920     0.20600
C1112       C  0.24960518  0.74585403  0.13091978    -0.39300
C1113       C  0.22690230  0.73932106  0.12720054     0.19600
C1114       C  0.21013350  0.75484145  0.12151388     0.22200
C1115       C  0.21474363  0.77804443  0.11901599    -0.39800
C1116       C  0.23736171  0.78454552  0.12270860     0.21000
N1117       N  0.27388294  0.77998079  0.13287101    -0.33100
C1118       C  0.26944914  0.80236113  0.12975941    -0.10600
C1119       C  0.24691012  0.80583132  0.12326419    -0.29400
N1120       N  0.18958822  0.74487330  0.12109576    -0.46000
C1121       C  0.19315963  0.72288149  0.12681244    -0.05300
C1122       C  0.21627871  0.71866392  0.13044489    -0.22700
H1123       H  0.26253121  0.73386037  0.13618984     0.19100
H1124       H  0.20149428  0.79027845  0.11534970     0.17900
H1125       H  0.23838184  0.82187414  0.12042330     0.14200
H1126       H  0.22401914  0.70302413  0.13625033     0.14100
H1127       H  0.28921909  0.77265249  0.13839663     0.32200
H1128       H  0.17393681  0.75288070  0.11853325     0.35000
C1129       C  0.37498472  0.76061615  0.12485274     0.20600
C1130       C  0.37121164  0.73885204  0.11559021    -0.39300
C1131       C  0.37960398  0.72038376  0.12834459     0.19600
C1132       C  0.39100057  0.72357832  0.14866232     0.22200
C1133       C  0.39477291  0.74519045  0.15783061    -0.39800
C1134       C  0.38622600  0.76347617  0.14528924     0.21000
N1135       N  0.36557166  0.78041291  0.11808533    -0.33100
C1136       C  0.37049506  0.79570924  0.13462936    -0.10600
C1137       C  0.38348193  0.78575634  0.15171535    -0.29400
N1138       N  0.39376579  0.70378028  0.15954547    -0.46000
C1139       C  0.38387035  0.68765263  0.14647778    -0.05300
C1140       C  0.37518860  0.69727302  0.12654517    -0.22700
H1141       H  0.36097923  0.73638718  0.10052162     0.19100
H1142       H  0.40216716  0.74746810  0.17450898     0.17900
H1143       H  0.38826404  0.79324414  0.16780679     0.14200
H1144       H  0.36442347  0.68907867  0.11410011     0.14100
H1145       H  0.35454605  0.78275185  0.10450540     0.32200
H1146       H  0.39983041  0.70170279  0.17610532     0.35000
C1147       C  0.11685757  0.77182203  0.25115961     0.20600
C1148       C  0.12479588  0.75004999  0.24598790    -0.39300
C1149       C  0.11921332  0.74195654  0.22441995     0.19600
C1150       C  0.10640799  0.75443475  0.20911458     0.22200
C1151       C  0.09834564  0.77631752  0.21437147    -0.39800
C1152       C  0.10409680  0.78456818  0.23603363     0.21000
N1153       N  0.12284645  0.78430577  0.26913782    -0.33100
C1154       C  0.11409980  0.80525763  0.26558019    -0.10600
C1155       C  0.10187756  0.80609038  0.24527309    -0.29400
N1156       N  0.10573814  0.74390543  0.18882858    -0.46000
C1157       C  0.11862286  0.72496139  0.19129326    -0.05300
C1158       C  0.12707454  0.72307110  0.21328120    -0.22700
H1159       H  0.13581479  0.74070386  0.25738249     0.19100
H1160       H  0.08946147  0.78666049  0.20203248     0.17900
H1161       H  0.09455206  0.82092596  0.23725712     0.14200
H1162       H  0.13874140  0.71039437  0.21975394     0.14100
H1163       H  0.13375246  0.77936083  0.28225495     0.32200
H1164       H  0.09855671  0.75008869  0.17382496     0.35000
C1165       C  0.11321117  0.75817157  0.36467640     0.20600
C1166       C  0.10756118  0.73580642  0.35843057    -0.39300
C1167       C  0.11901766  0.71842745  0.37014745     0.19600
C1168       C  0.13520460  0.72309138  0.38655603     0.22200
C1169       C  0.14051334  0.74541221  0.39309941    -0.39800
C1170       C  0.12877091  0.76275847  0.38170166     0.21000
N1171       N  0.10819083  0.77726897  0.35317417    -0.33100
C1172       C  0.12051888  0.79415085  0.36292446    -0.10600
C1173       C  0.13316802  0.78580438  0.38112110    -0.29400
N1174       N  0.14689053  0.70420703  0.39187616    -0.46000
C1175       C  0.13805377  0.68726890  0.37901948    -0.05300
C1176       C  0.12036351  0.69543616  0.36546590    -0.22700
H1177       H  0.09644104  0.73223382  0.34422750     0.19100
H1178       H  0.15413936  0.74906091  0.40490909     0.17900
H1179       H  0.14644018  0.79465407  0.39028540     0.14200
H1180       H  0.11189567  0.68651079  0.35181199     0.14100
H1181       H  0.09895832  0.77830554  0.33804816     0.32200
H1182       H  0.16148836  0.70333446  0.40196616     0.35000
C1183       C  0.23658584  0.88540427  0.20816779     0.20600
C1184       C  0.21341983  0.88870712  0.21335011    -0.39300
C1185       C  0.20668637  0.88264321  0.23550341     0.19600
C1186       C  0.22185177  0.87395368  0.25126607     0.22200
C1187       C  0.24488515  0.87063619  0.24610725    -0.39800
C1188       C  0.25158759  0.87667639  0.22406385     0.21000
N1189       N  0.24670992  0.88699609  0.18761698    -0.33100
C1190       C  0.26813671  0.87886446  0.19054447    -0.10600
C1191       C  0.27176631  0.87255780  0.21306767    -0.29400
N1192       N  0.21099783  0.86760982  0.27036347    -0.46000
C1193       C  0.18868223  0.87209845  0.26674114    -0.05300
C1194       C  0.18533658  0.88167704  0.24527188    -0.22700
H1195       H  0.20132484  0.89450837  0.20076205     0.19100
H1196       H  0.25652245  0.86282618  0.25802645     0.17900
H1197       H  0.28651134  0.86393866  0.21994615     0.14200
H1198       H  0.16929719  0.88614866  0.23741666     0.14100
H1199       H  0.23888489  0.89111799  0.17223349     0.32200
H1200       H  0.21818153  0.85968668  0.28453272     0.35000
C1201       C  0.38769390  0.84461578  0.27060396     0.20600
C1202       C  0.39360421  0.83889517  0.24822036    -0.39300
C1203       C  0.38629293  0.85398829  0.23128306     0.19600
C1204       C  0.37361769  0.87315974  0.23627952     0.22200
C1205       C  0.36814589  0.87915863  0.25876953    -0.39800
C1206       C  0.37580740  0.86423801  0.27575912     0.21000
N1207       N  0.38952357  0.83128533  0.28903917    -0.33100
C1208       C  0.37901335  0.84252003  0.30617546    -0.10600
C1209       C  0.37049268  0.86332855  0.29865284    -0.29400
N1210       N  0.36420738  0.88163004  0.21725035    -0.46000
C1211       C  0.37087721  0.86784398  0.20002194    -0.05300
C1212       C  0.38517970  0.85076903  0.20810249    -0.22700
H1213       H  0.40170019  0.82290205  0.24413152     0.19100
H1214       H  0.35715927  0.89340139  0.26261505     0.17900
H1215       H  0.35975562  0.87496985  0.30801570     0.14200
H1216       H  0.39057800  0.83575730  0.19896280     0.14100
H1217       H  0.39615472  0.81483385  0.28959335     0.32200
H1218       H  0.35161874  0.89413684  0.21647216     0.35000
C1219       C  0.38153585  0.72985625  0.28982093     0.20600
C1220       C  0.37452160  0.72399158  0.26795665    -0.39300
C1221       C  0.38326022  0.70366829  0.25946913     0.19600
C1222       C  0.39793494  0.68993262  0.27170618     0.22200
C1223       C  0.40531506  0.69606748  0.29367433    -0.39800
C1224       C  0.39656535  0.71667541  0.30224565     0.21000
N1225       N  0.37355780  0.74709149  0.30228609    -0.33100
C1226       C  0.38356158  0.74524719  0.32287762    -0.10600
C1227       C  0.39835221  0.72664244  0.32353305    -0.29400
N1228       N  0.40111862  0.66997324  0.26081606    -0.46000
C1229       C  0.38805689  0.67121641  0.24181317    -0.05300
C1230       C  0.37708265  0.69208813  0.24033728    -0.22700
H1231       H  0.36208703  0.73391536  0.25870298     0.19100
H1232       H  0.41608401  0.68509677  0.30376852     0.17900
H1233       H  0.40785742  0.72042894  0.33799202     0.14200
H1234       H  0.36454957  0.69727244  0.22789333     0.14100
H1235       H  0.36136559  0.75901816  0.29731507     0.32200
H1236       H  0.40990520  0.65579154  0.26686586     0.35000
C1237       C  0.27343798  0.86408307  0.36601276     0.20600
C1238       C  0.25603827  0.87453937  0.35335791    -0.39300
C1239       C  0.23363471  0.87005331  0.36053336     0.19600
C1240       C  0.22890144  0.85567168  0.37854130     0.22200
C1241       C  0.24631325  0.84521927  0.39119574    -0.39800
C1242       C  0.26875433  0.85023085  0.38443652     0.21000
N1243       N  0.29581669  0.86358851  0.36104317    -0.33100
C1244       C  0.30564326  0.84963134  0.37655712    -0.10600
C1245       C  0.28925340  0.84104672  0.39150831    -0.29400
N1246       N  0.20635773  0.85164298  0.37995143    -0.46000
C1247       C  0.19657660  0.86381091  0.36299199    -0.05300
C1248       C  0.21307530  0.87556203  0.35056048    -0.22700
H1249       H  0.25964702  0.88462657  0.33839212     0.19100
H1250       H  0.24263990  0.83325992  0.40468991     0.17900
H1251       H  0.29160553  0.82785051  0.40410372     0.14200
H1252       H  0.21059513  0.88482319  0.33485762     0.14100
H1253       H  0.30367623  0.87084233  0.34684526     0.32200
H1254       H  0.19828960  0.83997927  0.39066207     0.35000
C1255       C  0.25185147  0.70857472  0.39207948     0.20600
C1256       C  0.25666553  0.73151153  0.38828413    -0.39300
C1257       C  0.27863273  0.73849384  0.39409573     0.19600
C1258       C  0.29468525  0.72373668  0.40301362     0.22200
C1259       C  0.28964728  0.70084829  0.40738467    -0.39800
C1260       C  0.26758092  0.69385329  0.40161542     0.21000
N1261       N  0.23359267  0.69719687  0.38463853    -0.33100
C1262       C  0.23762681  0.67515299  0.38961491    -0.10600
C1263       C  0.25842826  0.67233129  0.40056863    -0.29400
N1264       N  0.31539185  0.73343638  0.40299877    -0.46000
C1265       C  0.31242264  0.75429634  0.39371102    -0.05300
C1266       C  0.28965388  0.75827354  0.38855579    -0.22700
H1267       H  0.24478888  0.74267126  0.37973889     0.19100
H1268       H  0.30246389  0.68899188  0.41319615     0.17900
H1269       H  0.26662552  0.65651041  0.40510798     0.14200
H1270       H  0.28261674  0.77260129  0.37941183     0.14100
H1271       H  0.21981192  0.70381350  0.37558344     0.32200
H1272       H  0.33083206  0.72556099  0.40693083     0.35000
C1273       C  0.34260961  0.00993296  0.12461188     0.20600
C1274       C  0.35418484  0.99041370  0.13218510    -0.39300
C1275       C  0.34393969  0.96950945  0.12677250     0.19600
C1276       C  0.32378473  0.96826830  0.11467530     0.22200
C1277       C  0.31236475  0.98770716  0.10695057    -0.39800
C1278       C  0.32251668  0.00852660  0.11243699     0.21000
N1279       N  0.34807726  0.03178994  0.12855098    -0.33100
C1280       C  0.33129204  0.04433780  0.11886831    -0.10600
C1281       C  0.31512804  0.03038560  0.10855437    -0.29400
N1282       N  0.31689246  0.94663615  0.11263353    -0.46000
C1283       C  0.33266465  0.93384110  0.12351807    -0.05300
C1284       C  0.34995017  0.94749626  0.13245396    -0.22700
H1285       H  0.36969769  0.99144372  0.14203470     0.19100
H1286       H  0.29640807  0.98670180  0.09782484     0.17900
H1287       H  0.29970761  0.03553553  0.09991756     0.14200
H1288       H  0.36455125  0.94211323  0.14227712     0.14100
H1289       H  0.36207290  0.03778413  0.13768957     0.32200
H1290       H  0.30207995  0.94094827  0.10464078     0.35000
C1291       C  0.20912149  0.22438029  0.11698463     0.20600
C1292       C  0.21359254  0.20136838  0.11279743    -0.39300
C1293       C  0.23593031  0.19422301  0.11713844     0.19600
C1294       C  0.25250010  0.20885220  0.12521640     0.22200
C1295       C  0.24802206  0.23185858  0.12948125    -0.39800
C1296       C  0.22571864  0.23904667  0.12494848     0.21000
N1297       N  0.18895773  0.23500818  0.11538642    -0.33100
C1298       C  0.19270510  0.25658694  0.12242319    -0.10600
C1299       C  0.21547782  0.25980288  0.12838598    -0.29400
N1300       N  0.27202139  0.19764003  0.12906139    -0.46000
C1301       C  0.26783749  0.17571971  0.12341376    -0.05300
C1302       C  0.24553643  0.17293161  0.11581446    -0.22700
H1303       H  0.20051781  0.18977893  0.10703093     0.19100
H1304       H  0.26082205  0.24320371  0.13626128     0.17900
H1305       H  0.22319714  0.27492422  0.13543581     0.14200
H1306       H  0.23722793  0.15729405  0.11087414     0.14100
H1307       H  0.17340790  0.22776165  0.11074263     0.32200
H1308       H  0.28703478  0.20434430  0.13579904    -0.03400
C1309       C  0.13002687  0.01171862  0.33222154     0.20600
C1310       C  0.12428936  0.99240156  0.34514706    -0.39300
C1311       C  0.12883766  0.97130350  0.33488047     0.19600
C1312       C  0.13846937  0.96969948  0.31346360     0.22200
C1313       C  0.14433235  0.98892662  0.30066512    -0.39800
C1314       C  0.13965197  0.00990698  0.31082146     0.21000
N1315       N  0.12611938  0.03366331  0.33740462    -0.33100
C1316       C  0.13315373  0.04578532  0.31905187    -0.10600
C1317       C  0.14181249  0.03152751  0.30223416    -0.29400
N1318       N  0.13989930  0.94794130  0.30686550    -0.46000
C1319       C  0.13107070  0.93541122  0.32408980    -0.05300
C1320       C  0.12411526  0.94938035  0.34200114    -0.22700
H1321       H  0.11626271  0.99369802  0.36165735     0.19100
H1322       H  0.15136613  0.98763793  0.28370672     0.17900
H1323       H  0.14813980  0.03630837  0.28561753     0.14200
H1324       H  0.11599030  0.94425849  0.35770880     0.14100
H1325       H  0.11845993  0.03993369  0.35214174     0.32200
H1326       H  0.14601561  0.94200514  0.29129229     0.35000
C1327       C  0.23605155  0.08856129  0.19859365     0.20600
C1328       C  0.21272498  0.08635005  0.20349974    -0.39300
C1329       C  0.20622390  0.09170191  0.22584048     0.19600
C1330       C  0.22182861  0.09850091  0.24209448     0.22200
C1331       C  0.24508001  0.10045322  0.23729830    -0.39800
C1332       C  0.25151340  0.09539158  0.21498823     0.21000
N1333       N  0.24584365  0.08865697  0.17788549    -0.33100
C1334       C  0.26741215  0.09613290  0.18123206    -0.10600
C1335       C  0.27163715  0.10008109  0.20412779    -0.29400
N1336       N  0.21121268  0.10557863  0.26099554    -0.46000
C1337       C  0.18866053  0.10356012  0.25673341    -0.05300
C1338       C  0.18484208  0.09461788  0.23511680    -0.22700
H1339       H  0.20034345  0.08246501  0.19046707     0.19100
H1340       H  0.25702742  0.10719499  0.24954995     0.17900
H1341       H  0.28657945  0.10797555  0.21144137     0.14200
H1342       H  0.16863401  0.09224132  0.22671511     0.14100
H1343       H  0.23765122  0.08647828  0.16229954     0.32200
H1344       H  0.21881427  0.11271129  0.27535117     0.35000
C1345       C  0.11571907  0.20737170  0.24316032     0.20600
C1346       C  0.12384639  0.22914964  0.23841032    -0.39300
C1347       C  0.11838009  0.23774939  0.21704487     0.19600
C1348       C  0.10534434  0.22582755  0.20152085     0.22200
C1349       C  0.09701261  0.20388853  0.20635799    -0.39800
C1350       C  0.10283880  0.19502091  0.22782044     0.21000
N1351       N  0.12207370  0.19440443  0.26065836    -0.33100
C1352       C  0.11362821  0.17345826  0.25659120    -0.10600
C1353       C  0.10102510  0.17313963  0.23645768    -0.29400
N1354       N  0.10495426  0.23682858  0.18143514    -0.46000
C1355       C  0.11827752  0.25544255  0.18431912    -0.05300
C1356       C  0.12672442  0.25665740  0.20630904    -0.22700
H1357       H  0.13511121  0.23806058  0.24989707     0.19100
H1358       H  0.08806857  0.19389583  0.19379308     0.17900
H1359       H  0.09389787  0.15844986  0.22803091     0.14200
H1360       H  0.13866870  0.26892391  0.21305212     0.14100
H1361       H  0.13325655  0.19902565  0.27365384     0.32200
H1362       H  0.09764894  0.23115990  0.16630047     0.35000
C1363       C  0.23142757  0.12524449  0.37041894     0.20600
C1364       C  0.24837036  0.13579570  0.38364107    -0.39300
C1365       C  0.27103163  0.13207796  0.37672874     0.19600
C1366       C  0.27629206  0.11912865  0.35782862     0.22200
C1367       C  0.25941906  0.10840161  0.34480911    -0.39800
C1368       C  0.23686248  0.11181619  0.35191090     0.21000
N1369       N  0.20877253  0.12883542  0.37134398    -0.33100
C1370       C  0.19974300  0.11744293  0.35346482    -0.10600
C1371       C  0.21674971  0.10653197  0.34106850    -0.29400
N1372       N  0.29851082  0.12103541  0.35262892    -0.46000
C1373       C  0.30768037  0.13505895  0.36839190    -0.05300
C1374       C  0.29109524  0.14216532  0.38387814    -0.22700
H1375       H  0.24416305  0.14717336  0.39744666     0.19100
H1376       H  0.26347893  0.09921351  0.32941371     0.17900
H1377       H  0.21491167  0.09814070  0.32481953     0.14200
H1378       H  0.29294727  0.15491567  0.39697244     0.14100
H1379       H  0.20021618  0.13994327  0.38222693     0.32200
H1380       H  0.30663262  0.11456294  0.33822273     0.35000
C1381       C  0.36909236  0.10481000  0.23201562     0.20600
C1382       C  0.36292296  0.10021679  0.25468647    -0.39300
C1383       C  0.37373237  0.11344810  0.27136125     0.19600
C1384       C  0.38926254  0.13023164  0.26574011     0.22200
C1385       C  0.39569449  0.13455780  0.24313282    -0.39800
C1386       C  0.38515428  0.12112485  0.22650104     0.21000
N1387       N  0.35813451  0.09783029  0.21323055    -0.33100
C1388       C  0.36717841  0.10971630  0.19560749    -0.10600
C1389       C  0.38446002  0.12406374  0.20320529    -0.29400
N1390       N  0.39395601  0.14315975  0.28394609    -0.46000
C1391       C  0.38154784  0.13457245  0.30141262    -0.05300
C1392       C  0.36892973  0.11577202  0.29429025    -0.22700
H1393       H  0.34939631  0.08844013  0.25890322     0.19100
H1394       H  0.40676666  0.14858113  0.23868496     0.17900
H1395       H  0.39274140  0.13741223  0.19359371     0.14200
H1396       H  0.35589506  0.10688437  0.30382097     0.14100
H1397       H  0.34358447  0.08761941  0.21276720     0.32200
H1398       H  0.40351017  0.15813090  0.28404184     0.35000
C1399       C  0.36535577  0.46807952  0.18115486     0.20600
C1400       C  0.36043108  0.48750274  0.19398525    -0.39300
C1401       C  0.36681059  0.50825345  0.18420977     0.19600
C1402       C  0.37721223  0.50971285  0.16314917     0.22200
C1403       C  0.38219142  0.49016241  0.15025855    -0.39800
C1404       C  0.37588768  0.46925801  0.16013506     0.21000
N1405       N  0.36215005  0.44640900  0.18745258    -0.33100
C1406       C  0.37084742  0.43344980  0.17051439    -0.10600
C1407       C  0.37943986  0.44710112  0.15301582    -0.29400
N1408       N  0.38212065  0.53154474  0.15807666    -0.46000
C1409       C  0.37489224  0.54393757  0.17616594    -0.05300
C1410       C  0.36523838  0.52992990  0.19271524    -0.22700
H1411       H  0.35265059  0.48649136  0.21064107     0.19100
H1412       H  0.39077504  0.49111645  0.13400299     0.17900
H1413       H  0.38802294  0.44159294  0.13770551     0.14200
H1414       H  0.35828541  0.53493396  0.20899857     0.14100
H1415       H  0.35523589  0.44077685  0.20282702     0.32200
H1416       H  0.39025604  0.53757343  0.14347365     0.35000
C1417       C  0.37993981  0.25834229  0.12092261     0.20600
C1418       C  0.36989118  0.24080363  0.10801991    -0.39300
C1419       C  0.37289627  0.21851317  0.11635989     0.19600
C1420       C  0.38480766  0.21418781  0.13617947     0.22200
C1421       C  0.39519749  0.23151449  0.14868367    -0.39800
C1422       C  0.39236694  0.25359697  0.14031451     0.21000
N1423       N  0.37575670  0.28089274  0.11945029    -0.33100
C1424       C  0.38532137  0.29035928  0.13822006    -0.10600
C1425       C  0.39623635  0.27381647  0.15119815    -0.29400
N1426       N  0.38191123  0.19257057  0.14288724    -0.46000
C1427       C  0.36828679  0.18275339  0.12721204    -0.05300
C1428       C  0.36252186  0.19828704  0.11015576    -0.22700
H1429       H  0.35902605  0.24437563  0.09361810     0.19100
H1430       H  0.40327400  0.22823311  0.16487686     0.17900
H1431       H  0.40309087  0.27586166  0.16814182     0.14200
H1432       H  0.35037979  0.19580756  0.09656656     0.14100
H1433       H  0.36458550  0.28880558  0.10814722     0.32200
H1434       H  0.38748897  0.18535145  0.15811628     0.35000
C1435       C  0.23193711  0.36927383  0.12846834     0.20600
C1436       C  0.25046169  0.37998357  0.13906777    -0.39300
C1437       C  0.27210511  0.37168598  0.13325601     0.19600
C1438       C  0.27503675  0.35366256  0.11845492     0.22200
C1439       C  0.25655689  0.34323570  0.10755394    -0.39800
C1440       C  0.23495558  0.35189940  0.11292582     0.21000
N1441       N  0.20981010  0.37127966  0.13406487    -0.33100
C1442       C  0.19865513  0.35527498  0.12184595    -0.10600
C1443       C  0.21373794  0.34312059  0.10820876    -0.29400
N1444       N  0.29678961  0.34652207  0.11863245    -0.46000
C1445       C  0.30785522  0.36038086  0.13327582    -0.05300
C1446       C  0.29309191  0.37639140  0.14259979    -0.22700
H1447       H  0.24812521  0.39282507  0.15200139     0.19100
H1448       H  0.25871463  0.32847582  0.09682871     0.17900
H1449       H  0.21009431  0.32779783  0.09874229     0.14200
H1450       H  0.29673311  0.38822004  0.15618105     0.14100
H1451       H  0.20304484  0.38124639  0.14709857     0.32200
H1452       H  0.30338122  0.33220529  0.11049038     0.35000
C1453       C  0.40560343  0.26370622  0.29635597     0.20600
C1454       C  0.40860214  0.28672673  0.29052042    -0.39300
C1455       C  0.40307914  0.29262086  0.26800462     0.19600
C1456       C  0.39517766  0.27670370  0.25260543     0.22200
C1457       C  0.39260862  0.25378985  0.25825248    -0.39800
C1458       C  0.39798167  0.24796670  0.28063272     0.21000
N1459       N  0.40545757  0.25462695  0.31741274    -0.33100
C1460       C  0.39721793  0.23323816  0.31494506    -0.10600
C1461       C  0.39281328  0.22842962  0.29223853    -0.29400
N1462       N  0.38787008  0.28677596  0.23355151    -0.46000
C1463       C  0.39120881  0.30927075  0.23659324    -0.05300
C1464       C  0.40097233  0.31368802  0.25775335    -0.22700
H1465       H  0.41323904  0.29937873  0.30300530     0.19100
H1466       H  0.38517103  0.24170118  0.24657529     0.17900
H1467       H  0.38428816  0.21357989  0.28552516     0.14200
H1468       H  0.40416607  0.33011672  0.26532838     0.14100
H1469       H  0.40814428  0.26324294  0.33267381     0.32200
H1470       H  0.37994787  0.27893968  0.21974429     0.35000
C1471       C  0.18751808  0.51207655  0.36601848     0.20600
C1472       C  0.19925081  0.49242950  0.35945924    -0.39300
C1473       C  0.18798198  0.47187620  0.36365639     0.19600
C1474       C  0.16659942  0.47089816  0.37355910     0.22200
C1475       C  0.15478368  0.49062034  0.38001742    -0.39800
C1476       C  0.16611149  0.51124173  0.37588183     0.21000
N1477       N  0.19500195  0.53356235  0.36464439    -0.33100
C1478       C  0.17829053  0.54659997  0.37369276    -0.10600
C1479       C  0.15992137  0.53330920  0.38084003    -0.29400
N1480       N  0.16017319  0.44918803  0.37680579    -0.46000
C1481       C  0.17769227  0.43633351  0.36905012    -0.05300
C1482       C  0.19524002  0.44990435  0.36056633    -0.22700
H1483       H  0.21615036  0.49307609  0.35210849     0.19100
H1484       H  0.13823604  0.48993746  0.38811521     0.17900
H1485       H  0.14436636  0.53898452  0.38891629     0.14200
H1486       H  0.21148086  0.44442228  0.35379325     0.14100
H1487       H  0.21066885  0.53900069  0.35818473     0.32200
H1488       H  0.14516777  0.44349247  0.38448372     0.35000
C1489       C  0.13175904  0.37651902  0.26883642     0.20600
C1490       C  0.13725130  0.38511660  0.24710801    -0.39300
C1491       C  0.12864480  0.37279397  0.22847382     0.19600
C1492       C  0.11539542  0.35356666  0.23150729     0.22200
C1493       C  0.11000616  0.34502581  0.25303113    -0.39800
C1494       C  0.11876001  0.35707660  0.27146737     0.21000
N1495       N  0.14110408  0.38250697  0.28887970    -0.33100
C1496       C  0.13438849  0.36644195  0.30407115    -0.10600
C1497       C  0.12030649  0.35048548  0.29380600    -0.29400
N1498       N  0.11263725  0.34254734  0.21185703    -0.46000
C1499       C  0.12443275  0.35432300  0.19599364    -0.05300
C1500       C  0.13439580  0.37365425  0.20557643    -0.22700
H1501       H  0.14890082  0.39919536  0.24487555     0.19100
H1502       H  0.10129141  0.32896205  0.25520501     0.17900
H1503       H  0.11426305  0.33469775  0.30109163     0.14200
H1504       H  0.14674307  0.38483275  0.19769772     0.14100
H1505       H  0.15341568  0.39504935  0.29145226     0.32200
H1506       H  0.10540882  0.32645020  0.20986765     0.35000
C1507       C  0.13460760  0.25921780  0.37892081     0.20600
C1508       C  0.14043711  0.23683011  0.38489379    -0.39300
C1509       C  0.13136507  0.21963418  0.37109296     0.19600
C1510       C  0.11793117  0.22449868  0.35241511     0.22200
C1511       C  0.11187353  0.24684196  0.34660842    -0.39800
C1512       C  0.12051911  0.26399706  0.36071001     0.21000
N1513       N  0.14426653  0.27837381  0.38672582    -0.33100
C1514       C  0.13628149  0.29552785  0.37355142    -0.10600
C1515       C  0.12106508  0.28721928  0.35739135    -0.29400
N1516       N  0.11469655  0.20576066  0.33983727    -0.46000
C1517       C  0.12591992  0.18875216  0.35060341    -0.05300
C1518       C  0.13626949  0.19666941  0.37038627    -0.22700
H1519       H  0.15242789  0.23316439  0.39835327     0.19100
H1520       H  0.10242391  0.25068844  0.33130642     0.17900
H1521       H  0.11425717  0.29636472  0.34295412     0.14200
H1522       H  0.14797004  0.18751079  0.38123281     0.14100
H1523       H  0.15751910  0.27939079  0.39850464     0.32200
H1524       H  0.10682668  0.20493884  0.32395157     0.35000
C1525       C  0.26895601  0.29114037  0.39130168     0.20600
C1526       C  0.29225657  0.28672313  0.39426822    -0.39300
C1527       C  0.29938846  0.26469840  0.38862905     0.19600
C1528       C  0.28439032  0.24832070  0.38082293     0.22200
C1529       C  0.26118309  0.25270060  0.37786703    -0.39800
C1530       C  0.25412771  0.27471129  0.38324599     0.21000
N1531       N  0.25856977  0.31145992  0.39228792    -0.33100
C1532       C  0.23727106  0.30788490  0.38425591    -0.10600
C1533       C  0.23379565  0.28519625  0.37872992    -0.29400
N1534       N  0.29556815  0.22949307  0.37460938    -0.46000
C1535       C  0.31788168  0.23392124  0.37825225    -0.05300
C1536       C  0.32097932  0.25563075  0.38719911    -0.22700
H1537       H  0.30414794  0.29981518  0.39932990     0.19100
H1538       H  0.24972330  0.24029278  0.37058110     0.17900
H1539       H  0.21909030  0.27785139  0.37043735     0.14200
H1540       H  0.33692276  0.26405049  0.39094997     0.14100
H1541       H  0.26615011  0.32709750  0.39587692     0.32200
H1542       H  0.28853351  0.21491860  0.36733924     0.35000
C1543       C  0.25074558  0.36916929  0.27602720     0.20600
C1544       C  0.25573590  0.36414558  0.25322918    -0.39300
C1545       C  0.27846564  0.36746070  0.24658210     0.19600
C1546       C  0.29489996  0.37520699  0.26153184     0.22200
C1547       C  0.28992503  0.38018082  0.28428454    -0.39800
C1548       C  0.26724461  0.37687374  0.29092363     0.21000
N1549       N  0.23101217  0.36549793  0.28703711    -0.33100
C1550       C  0.23507321  0.37065108  0.30912456    -0.10600
C1551       C  0.25740959  0.37808036  0.31214080    -0.29400
N1552       N  0.31548283  0.37542049  0.25160920    -0.46000
C1553       C  0.31224420  0.36759391  0.23023146    -0.05300
C1554       C  0.28933139  0.36258230  0.22636854    -0.22700
H1555       H  0.24305984  0.35736171  0.24175800     0.19100
H1556       H  0.30294945  0.38543674  0.29616155     0.17900
H1557       H  0.26575503  0.38227914  0.32796984     0.14200
H1558       H  0.28186194  0.35528640  0.21124241     0.14100
H1559       H  0.21612002  0.35862991  0.28019913     0.32200
H1560       H  0.33096002  0.37961408  0.25926698     0.35000
C1561       C  0.52507634  0.60898696  0.18550122     0.20600
C1562       C  0.50541650  0.60355152  0.19787656    -0.39300
C1563       C  0.48471461  0.60834302  0.18713130     0.19600
C1564       C  0.48354984  0.61790147  0.16567467     0.22200
C1565       C  0.50332514  0.62337613  0.15323252    -0.39800
C1566       C  0.52415619  0.61853979  0.16402322     0.21000
N1567       N  0.54671821  0.60607308  0.19213861    -0.33100
C1568       C  0.55987066  0.61383904  0.17486619    -0.10600
C1569       C  0.54642419  0.62178023  0.15695269    -0.29400
N1570       N  0.46166094  0.62080303  0.15940008    -0.46000
C1571       C  0.44892366  0.61294874  0.17702646    -0.05300
C1572       C  0.46275856  0.60505930  0.19457120    -0.22700
H1573       H  0.50618852  0.59612075  0.21468655     0.19100
H1574       H  0.50255590  0.63086132  0.13645106     0.17900
H1575       H  0.55215197  0.62898856  0.14101489     0.14200
H1576       H  0.45743623  0.59792779  0.21068657     0.14100
H1577       H  0.55221166  0.59931351  0.20760476     0.32200
H1578       H  0.45576804  0.62763327  0.14411873     0.35000
C1579       C  0.73985820  0.60158334  0.29513355     0.20600
C1580       C  0.71675159  0.59810022  0.29019783    -0.39300
C1581       C  0.71016394  0.60277533  0.26779273     0.19600
C1582       C  0.72546261  0.61018324  0.25146201     0.22200
C1583       C  0.74861403  0.61353165  0.25636007    -0.39800
C1584       C  0.75517550  0.60905245  0.27883703     0.21000
N1585       N  0.74960939  0.60125674  0.31575281    -0.33100
C1586       C  0.77114454  0.60898060  0.31268464    -0.10600
C1587       C  0.77539403  0.61361642  0.28980686    -0.29400
N1588       N  0.71457667  0.61548934  0.23209398    -0.46000
C1589       C  0.69217897  0.61160947  0.23618967    -0.05300
C1590       C  0.68879076  0.60347598  0.25821196    -0.22700
H1591       H  0.70456134  0.59331606  0.30316487     0.19100
H1592       H  0.76038149  0.62034232  0.24392238     0.17900
H1593       H  0.79054461  0.62118702  0.28251934     0.14200
H1594       H  0.67272770  0.59983525  0.26650422     0.14100
H1595       H  0.74155688  0.59771654  0.33119674     0.32200
H1596       H  0.72180282  0.62236351  0.21738430     0.35000
C1597       C  0.52162956  0.79909382  0.37265845     0.20600
C1598       C  0.50175857  0.78600070  0.37424636    -0.39300
C1599       C  0.48126609  0.79817422  0.37427444     0.19600
C1600       C  0.48049885  0.82160436  0.37249625     0.22200
C1601       C  0.50046434  0.83474968  0.37114585    -0.39800
C1602       C  0.52105389  0.82256628  0.37145323     0.21000
N1603       N  0.54318154  0.79153815  0.37304816    -0.33100
C1604       C  0.55653040  0.81029871  0.37247317    -0.10600
C1605       C  0.54337050  0.83001955  0.37142267    -0.29400
N1606       N  0.45879715  0.82903177  0.37320805    -0.46000
C1607       C  0.44578640  0.81016929  0.37586374    -0.05300
C1608       C  0.45922317  0.79064898  0.37655642    -0.22700
H1609       H  0.50223527  0.76768581  0.37574914     0.19100
H1610       H  0.50001509  0.85310079  0.37030820     0.17900
H1611       H  0.54932042  0.84741096  0.37101601     0.14200
H1612       H  0.45359048  0.77326839  0.37868859     0.14100
H1613       H  0.54848729  0.77465342  0.37429567     0.32200
H1614       H  0.45323686  0.84586234  0.37258221     0.35000
C1615       C  0.61589829  0.73778624  0.28075539     0.20600
C1616       C  0.62006893  0.73217106  0.25804323    -0.39300
C1617       C  0.61541691  0.70967604  0.25199645     0.19600
C1618       C  0.60680833  0.69390191  0.26724326     0.22200
C1619       C  0.60250584  0.69957758  0.29003057    -0.39800
C1620       C  0.60754324  0.72207152  0.29619979     0.21000
N1621       N  0.62209375  0.75702227  0.29127118    -0.33100
C1622       C  0.61807279  0.75345621  0.31363964    -0.10600
C1623       C  0.60864810  0.73199601  0.31736862    -0.29400
N1624       N  0.60676996  0.67298737  0.25798606    -0.46000
C1625       C  0.61588986  0.67556972  0.23696899    -0.05300
C1626       C  0.62126214  0.69817663  0.23260528    -0.22700
H1627       H  0.62793930  0.74401083  0.24633716     0.19100
H1628       H  0.59715925  0.68702588  0.30238705     0.17900
H1629       H  0.60486141  0.72407674  0.33354450     0.14200
H1630       H  0.63015471  0.70493042  0.21795040     0.14100
H1631       H  0.63011065  0.77105601  0.28388407     0.32200
H1632       H  0.60291322  0.65771317  0.26617699     0.35000
C1633       C  0.70552601  0.72169649  0.39684898     0.20600
C1634       C  0.71173856  0.69984990  0.40451359    -0.39300
C1635       C  0.73366717  0.69241398  0.39812740     0.19600
C1636       C  0.74802683  0.70586904  0.38514060     0.22200
C1637       C  0.74186817  0.72744813  0.37753562    -0.39800
C1638       C  0.72018627  0.73474356  0.38380219     0.21000
N1639       N  0.68499672  0.73188849  0.39843645    -0.33100
C1640       C  0.68682353  0.75121663  0.38595120    -0.10600
C1641       C  0.70851167  0.75355986  0.37676648    -0.29400
N1642       N  0.76663673  0.69440451  0.37894751    -0.46000
C1643       C  0.76436333  0.67331982  0.38773455    -0.05300
C1644       C  0.74415789  0.67138433  0.40022927    -0.22700
H1645       H  0.70001542  0.68906117  0.41376121     0.19100
H1646       H  0.75275391  0.73736577  0.36645635     0.17900
H1647       H  0.71444925  0.76657114  0.36516372     0.14200
H1648       H  0.73715668  0.65619816  0.40790766     0.14100
H1649       H  0.67028485  0.72533385  0.40598971     0.32200
H1650       H  0.77949316  0.70015402  0.36806600     0.35000
C1651       C  0.64137616  0.75640207  0.11295832     0.20600
C1652       C  0.64708676  0.73407095  0.10688680    -0.39300
C1653       C  0.63458566  0.71682344  0.11763494     0.19600
C1654       C  0.61774659  0.72154989  0.13343710     0.22200
C1655       C  0.61170229  0.74391163  0.13914283    -0.39800
C1656       C  0.62410188  0.76116801  0.12826301     0.21000
N1657       N  0.65360526  0.77516536  0.10853143    -0.33100
C1658       C  0.64410972  0.79204189  0.12096494    -0.10600
C1659       C  0.62538452  0.78406823  0.13322461    -0.29400
N1660       N  0.61208919  0.70267404  0.14496542    -0.46000
C1661       C  0.62539795  0.68584186  0.13659996    -0.05300
C1662       C  0.63926910  0.69389670  0.11911881    -0.22700
H1663       H  0.66160381  0.73035956  0.09616004     0.19100
H1664       H  0.59967106  0.74755894  0.15260353     0.17900
H1665       H  0.61605197  0.79301754  0.14631756     0.14200
H1666       H  0.65339894  0.68507935  0.11125135     0.14100
H1667       H  0.66883516  0.77598100  0.09936029     0.32200
H1668       H  0.60184259  0.70185235  0.15947302     0.35000
C1669       C  0.64185567  0.86765618  0.23040863     0.20600
C1670       C  0.64804072  0.87534174  0.25209904    -0.39300
C1671       C  0.63750524  0.86430064  0.27046067     0.19600
C1672       C  0.62204280  0.84681242  0.26750032     0.22200
C1673       C  0.61641106  0.83861356  0.24581238    -0.39800
C1674       C  0.62686746  0.84975781  0.22742982     0.21000
N1675       N  0.65097926  0.87405968  0.21042663    -0.33100
C1676       C  0.64202418  0.85995653  0.19462193    -0.10600
C1677       C  0.62699041  0.84451249  0.20460863    -0.29400
N1678       N  0.61612034  0.83776839  0.28767034    -0.46000
C1679       C  0.62810684  0.84935989  0.30356002    -0.05300
C1680       C  0.64167254  0.86597492  0.29342737    -0.22700
H1681       H  0.66080557  0.88837586  0.25452648     0.19100
H1682       H  0.60540734  0.82405411  0.24346389     0.17900
H1683       H  0.61880718  0.83016114  0.19654584     0.14200
H1684       H  0.65446652  0.87638400  0.30157407     0.14100
H1685       H  0.66411788  0.88578977  0.20799698     0.32200
H1686       H  0.60635688  0.82315706  0.29029243     0.35000
C1687       C  0.98298395  0.65458036  0.13443495     0.20600
C1688       C  0.00259291  0.64082744  0.13373964    -0.39300
C1689       C  0.02358112  0.65242237  0.13371207     0.19600
C1690       C  0.02481809  0.67588926  0.13415343     0.22200
C1691       C  0.00530756  0.68956619  0.13533207    -0.39800
C1692       C  0.98443506  0.67801032  0.13550750     0.21000
N1693       N  0.96102779  0.64791629  0.13338103    -0.33100
C1694       C  0.94851372  0.66729128  0.13397390    -0.10600
C1695       C  0.96255253  0.68633960  0.13548858    -0.29400
N1696       N  0.04654193  0.68290493  0.13267974    -0.46000
C1697       C  0.05942046  0.66384301  0.13152458    -0.05300
C1698       C  0.04571976  0.64442787  0.13233906    -0.22700
H1699       H  0.00158409  0.62250485  0.13279656     0.19100
H1700       H  0.00629273  0.70791789  0.13557419     0.17900
H1701       H  0.95742570  0.70399060  0.13573958     0.14200
H1702       H  0.05117686  0.62690478  0.13143821     0.14100
H1703       H  0.95495388  0.63130279  0.13203965     0.32200
H1704       H  0.05228487  0.69969723  0.13245339     0.35000
C1705       C  0.78754220  0.74441674  0.11414153     0.20600
C1706       C  0.76478893  0.75004220  0.11831707    -0.39300
C1707       C  0.75833431  0.77206867  0.11224172     0.19600
C1708       C  0.77331077  0.78749620  0.10257918     0.22200
C1709       C  0.79617765  0.78173836  0.09817247    -0.39800
C1710       C  0.80269917  0.75954972  0.10428711     0.21000
N1711       N  0.79832325  0.72566006  0.12122638    -0.33100
C1712       C  0.82052281  0.72865254  0.11584476    -0.10600
C1713       C  0.82397892  0.74945333  0.10494254    -0.29400
N1714       N  0.76372194  0.80829225  0.10151608    -0.46000
C1715       C  0.74274798  0.80595727  0.11095561    -0.05300
C1716       C  0.73875960  0.78359186  0.11752166    -0.22700
H1717       H  0.75331926  0.73858584  0.12707755     0.19100
H1718       H  0.80830690  0.79402333  0.09175320     0.17900
H1719       H  0.84008290  0.75697526  0.10006061     0.14200
H1720       H  0.72431088  0.77714679  0.12700147     0.14100
H1721       H  0.79123009  0.71214197  0.13032707     0.32200
H1722       H  0.77172035  0.82344579  0.09685041     0.35000
C1723       C  0.77484629  0.61302885  0.12803351     0.20600
C1724       C  0.75729725  0.60042275  0.13839448    -0.39300
C1725       C  0.73496821  0.60793091  0.13409578     0.19600
C1726       C  0.73054516  0.62689930  0.12090368     0.22200
C1727       C  0.74796695  0.63934108  0.11043497    -0.39800
C1728       C  0.77015356  0.63157727  0.11434334     0.21000
N1729       N  0.79731004  0.61202025  0.13273369    -0.33100
C1730       C  0.80679536  0.63024861  0.12222458    -0.10600
C1731       C  0.79040374  0.64240816  0.11017986    -0.29400
N1732       N  0.70855244  0.63289631  0.12251668    -0.46000
C1733       C  0.69872015  0.61750906  0.13655194    -0.05300
C1734       C  0.71458526  0.60152508  0.14397905    -0.22700
H1735       H  0.76081893  0.58675840  0.15018614     0.19100
H1736       H  0.74460598  0.65493377  0.10127333     0.17900
H1737       H  0.79249312  0.65894093  0.10236653     0.14200
H1738       H  0.71212684  0.58870335  0.15694380     0.14100
H1739       H  0.80507289  0.60154463  0.14477843     0.32200
H1740       H  0.70107861  0.64761463  0.11598192     0.35000
C1741       C  0.88280312  0.62675546  0.27607154     0.20600
C1742       C  0.89327328  0.63824636  0.25792344    -0.39300
C1743       C  0.88675296  0.63126159  0.23609080     0.19600
C1744       C  0.87064675  0.61442513  0.23263998     0.22200
C1745       C  0.86052545  0.60266292  0.25075736    -0.39800
C1746       C  0.86738503  0.60930909  0.27255505     0.21000
N1747       N  0.88320635  0.63266245  0.29812475    -0.33100
C1748       C  0.86821946  0.61867813  0.30870858    -0.10600
C1749       C  0.85823717  0.60371460  0.29337454    -0.29400
N1750       N  0.86451743  0.61355890  0.21067757    -0.46000
C1751       C  0.87706014  0.62965651  0.20001626    -0.05300
C1752       C  0.89126893  0.64094374  0.21522731    -0.22700
H1753       H  0.90450998  0.65256918  0.26060208     0.19100
H1754       H  0.84716511  0.59027843  0.24811749     0.17900
H1755       H  0.84404379  0.59239839  0.29655358     0.14200
H1756       H  0.90155758  0.65584450  0.21188514     0.14100
H1757       H  0.89157283  0.64662138  0.30519241     0.32200
H1758       H  0.85145332  0.60379381  0.20365378     0.35000
C1759       C  0.98012737  0.86464210  0.31598315     0.20600
C1760       C  0.00009619  0.86443523  0.30295815    -0.39300
C1761       C  0.02050307  0.86538083  0.31517205     0.19600
C1762       C  0.02115286  0.86603775  0.33866522     0.22200
C1763       C  0.00105568  0.86651269  0.35177746    -0.39800
C1764       C  0.98050078  0.86595030  0.33946262     0.21000
N1765       N  0.95866274  0.86431846  0.30819880    -0.33100
C1766       C  0.94507623  0.86575416  0.32674343    -0.10600
C1767       C  0.95805543  0.86682309  0.34662994    -0.29400
N1768       N  0.04289957  0.86660290  0.34603287    -0.46000
C1769       C  0.05599920  0.86669225  0.32698805    -0.05300
C1770       C  0.04259636  0.86601433  0.30749651    -0.22700
H1771       H  0.99976164  0.86382058  0.28458559     0.19100
H1772       H  0.00138799  0.86745834  0.37013447     0.17900
H1773       H  0.95190418  0.86815041  0.36391931     0.14200
H1774       H  0.04830931  0.86584719  0.29000395     0.14100
H1775       H  0.95356367  0.86361029  0.29121985     0.32200
H1776       H  0.04846632  0.86727665  0.36286110     0.35000
C1777       C  0.88979052  0.75628503  0.21009889     0.20600
C1778       C  0.89320116  0.77930605  0.21508092    -0.39300
C1779       C  0.88912703  0.78568271  0.23765229     0.19600
C1780       C  0.88222830  0.77030149  0.25409179     0.22200
C1781       C  0.87898569  0.74720299  0.24915646    -0.39800
C1782       C  0.88297546  0.74083754  0.22652261     0.21000
N1783       N  0.89000105  0.74660466  0.18944961    -0.33100
C1784       C  0.88300367  0.72491758  0.19267122    -0.10600
C1785       C  0.87877652  0.72057927  0.21561892    -0.29400
N1786       N  0.87727555  0.78105544  0.27362665    -0.46000
C1787       C  0.88093616  0.80343446  0.26951063    -0.05300
C1788       C  0.88855350  0.80692883  0.24733417    -0.22700
H1789       H  0.89758428  0.79157167  0.20207833     0.19100
H1790       H  0.87269420  0.73530628  0.26172015     0.17900
H1791       H  0.87194917  0.70518755  0.22305878     0.14200
H1792       H  0.89179227  0.82299733  0.23898419     0.14100
H1793       H  0.89323610  0.75466870  0.17395777     0.32200
H1794       H  0.87068453  0.77376809  0.28843430     0.35000
C1795       C  0.76935044  0.88266201  0.20489462     0.20600
C1796       C  0.79198579  0.88806781  0.21052089    -0.39300
C1797       C  0.79815819  0.88436582  0.23329235     0.19600
C1798       C  0.78290483  0.87579781  0.24910856     0.22200
C1799       C  0.76025003  0.87085703  0.24361130    -0.39800
C1800       C  0.75410722  0.87458798  0.22096509     0.21000
N1801       N  0.76015319  0.88164572  0.18398773    -0.33100
C1802       C  0.73905811  0.87264698  0.18687604    -0.10600
C1803       C  0.73456406  0.86845285  0.20973593    -0.29400
N1804       N  0.79355236  0.87066757  0.26857943    -0.46000
C1805       C  0.81570776  0.87614822  0.26533211    -0.05300
C1806       C  0.81927219  0.88504835  0.24363589    -0.22700
H1807       H  0.80423437  0.89342647  0.19783840     0.19100
H1808       H  0.74864747  0.86325879  0.25574659     0.17900
H1809       H  0.71971168  0.86024227  0.21694290     0.14200
H1810       H  0.83540981  0.88934198  0.23582264     0.14100
H1811       H  0.76826380  0.88536473  0.16861780     0.32200
H1812       H  0.78645025  0.86267789  0.28278224     0.35000
C1813       C  0.76843337  0.87585122  0.36909083     0.20600
C1814       C  0.74627889  0.88189234  0.36260073    -0.39300
C1815       C  0.72863935  0.86956660  0.37285757     0.19600
C1816       C  0.73284736  0.85221211  0.38817369     0.22200
C1817       C  0.75502002  0.84625812  0.39480567    -0.39800
C1818       C  0.77266684  0.85884596  0.38479580     0.21000
N1819       N  0.78774653  0.88203238  0.35861251    -0.33100
C1820       C  0.80441219  0.86890061  0.36751666    -0.10600
C1821       C  0.79576846  0.85451559  0.38427501    -0.29400
N1822       N  0.71376821  0.84028703  0.39208795    -0.46000
C1823       C  0.69732361  0.85004910  0.37923735    -0.05300
C1824       C  0.70583999  0.86864163  0.36729576    -0.22700
H1825       H  0.74309833  0.89407360  0.34919073     0.19100
H1826       H  0.75834763  0.83171306  0.40556232     0.17900
H1827       H  0.80446567  0.84040245  0.39225592     0.14200
H1828       H  0.69736878  0.87806056  0.35395750     0.14100
H1829       H  0.78907014  0.89252330  0.34433972     0.32200
H1830       H  0.71252655  0.82502706  0.40108294     0.35000
C1831       C  0.88385726  0.76220205  0.37207975     0.20600
C1832       C  0.89211350  0.74034070  0.36691814    -0.39300
C1833       C  0.88036267  0.72203673  0.37697268     0.19600
C1834       C  0.86171665  0.72538968  0.39099586     0.22200
C1835       C  0.85349570  0.74714696  0.39612435    -0.39800
C1836       C  0.86520499  0.76533528  0.38612854     0.21000
N1837       N  0.88976935  0.78196160  0.36206652    -0.33100
C1838       C  0.87459531  0.79764416  0.36958200    -0.10600
C1839       C  0.85911014  0.78786263  0.38466226    -0.29400
N1840       N  0.85094828  0.70567600  0.39498705    -0.46000
C1841       C  0.86249763  0.68951775  0.38333642    -0.05300
C1842       C  0.88130526  0.69899915  0.37224541    -0.22700
H1843       H  0.90562903  0.73771361  0.35467780     0.19100
H1844       H  0.83799352  0.74964739  0.40578075     0.17900
H1845       H  0.84395900  0.79565762  0.39167234     0.14200
H1846       H  0.89209324  0.69081441  0.35978378     0.14100
H1847       H  0.90174546  0.78411873  0.34909664     0.32200
H1848       H  0.83517885  0.70373265  0.40301599     0.35000
C1849       C  0.52453876  0.16044254  0.37155156     0.20600
C1850       C  0.50470073  0.15089493  0.36202808    -0.39300
C1851       C  0.48383605  0.15946110  0.37023997     0.19600
C1852       C  0.48291067  0.17633591  0.38654932     0.22200
C1853       C  0.50265314  0.18580186  0.39606891    -0.39800
C1854       C  0.52340846  0.17720819  0.38795348     0.21000
N1855       N  0.54644687  0.15563977  0.36644984    -0.33100
C1856       C  0.55929626  0.16951756  0.37970073    -0.10600
C1857       C  0.54545011  0.18314978  0.39332369    -0.29400
N1858       N  0.46121872  0.18210665  0.39104421    -0.46000
C1859       C  0.44802626  0.16879804  0.37763354    -0.05300
C1860       C  0.46153998  0.15434567  0.36443718    -0.22700
H1861       H  0.50544747  0.13790505  0.34906353     0.19100
H1862       H  0.50191048  0.19909272  0.40872974     0.17900
H1863       H  0.55081699  0.19594734  0.40536248     0.14200
H1864       H  0.45584684  0.14216824  0.35191973     0.14100
H1865       H  0.55228101  0.14393291  0.35446876     0.32200
H1866       H  0.45571869  0.19455144  0.40242842     0.35000
C1867       C  0.62723841  0.46977269  0.16955051     0.20600
C1868       C  0.62056105  0.48954094  0.15785966    -0.39300
C1869       C  0.62610831  0.51024151  0.16843063     0.19600
C1870       C  0.63727897  0.51109670  0.18910419     0.22200
C1871       C  0.64381912  0.49141115  0.20079567    -0.39800
C1872       C  0.63840601  0.47081244  0.19021024     0.21000
N1873       N  0.62360967  0.44800192  0.16348393    -0.33100
C1874       C  0.63244005  0.43519090  0.18052075    -0.10600
C1875       C  0.64186057  0.44886436  0.19740324    -0.29400
N1876       N  0.64048449  0.53268365  0.19570528    -0.46000
C1877       C  0.63142453  0.54581985  0.17911071    -0.05300
C1878       C  0.62222723  0.53243355  0.16179394    -0.22700
H1879       H  0.61166115  0.48886191  0.14178881     0.19100
H1880       H  0.65241023  0.49208293  0.21703536     0.17900
H1881       H  0.64965968  0.44345432  0.21315568     0.14200
H1882       H  0.61368554  0.53816427  0.14655156     0.14100
H1883       H  0.61510889  0.44224252  0.14902155     0.32200
H1884       H  0.64834301  0.53815139  0.21063919     0.35000
C1885       C  0.52295397  0.36370171  0.16603181     0.20600
C1886       C  0.50362031  0.35679263  0.15373033    -0.39300
C1887       C  0.48244337  0.36272263  0.16322229     0.19600
C1888       C  0.48071844  0.37463922  0.18339823     0.22200
C1889       C  0.50000384  0.38153983  0.19566925    -0.39800
C1890       C  0.52113205  0.37561498  0.18619830     0.21000
N1891       N  0.54499007  0.35991077  0.16085835    -0.33100
C1892       C  0.55729188  0.36949934  0.17785228    -0.10600
C1893       C  0.54295159  0.37945910  0.19394941    -0.29400
N1894       N  0.45877130  0.37794039  0.18901585    -0.46000
C1895       C  0.44631224  0.36804094  0.17235712    -0.05300
C1896       C  0.46049487  0.35836325  0.15592623    -0.22700
H1897       H  0.50496161  0.34736540  0.13801660     0.19100
H1898       H  0.49865206  0.39073570  0.21152112     0.17900
H1899       H  0.54784052  0.38815837  0.20937536     0.14200
H1900       H  0.45543083  0.34920637  0.14082699     0.14100
H1901       H  0.55126645  0.35120027  0.14672950     0.32200
H1902       H  0.45263701  0.38623260  0.20345884     0.35000
C1903       C  0.60881539  0.25062387  0.29042966     0.20600
C1904       C  0.61156012  0.25469180  0.26722544    -0.39300
C1905       C  0.60710002  0.27684302  0.26011528     0.19600
C1906       C  0.60025464  0.29380278  0.27493475     0.22200
C1907       C  0.59725047  0.28962414  0.29825005    -0.39800
C1908       C  0.60175368  0.26733638  0.30542258     0.21000
N1909       N  0.61547872  0.23203532  0.30164332    -0.33100
C1910       C  0.61256080  0.23679064  0.32389482    -0.10600
C1911       C  0.60375446  0.25851132  0.32706362    -0.29400
N1912       N  0.60101082  0.31416754  0.26459467    -0.46000
C1913       C  0.60888840  0.30996154  0.24337218    -0.05300
C1914       C  0.61245519  0.28693093  0.23985070    -0.22700
H1915       H  0.61842883  0.24198834  0.25584012     0.19100
H1916       H  0.59333533  0.30307508  0.31014125     0.17900
H1917       H  0.60141161  0.26738255  0.34298507     0.14200
H1918       H  0.62044204  0.27900359  0.22528816     0.14100
H1919       H  0.62309672  0.21758746  0.29470434     0.32200
H1920       H  0.59890310  0.33003705  0.27221901     0.35000
C1921       C  0.68740456  0.01045636  0.13550054     0.20600
C1922       C  0.70051303  0.99089894  0.13925470    -0.39300
C1923       C  0.68971654  0.97013668  0.13477455     0.19600
C1924       C  0.66749376  0.96879923  0.12711916     0.22200
C1925       C  0.65429433  0.98846323  0.12338490    -0.39800
C1926       C  0.66515060  0.00935323  0.12787675     0.21000
N1927       N  0.69420150  0.03214260  0.13767040    -0.33100
C1928       C  0.67625865  0.04517667  0.13133299    -0.10600
C1929       C  0.65772346  0.03154318  0.12520480    -0.29400
N1930       N  0.66155779  0.94693440  0.12348057    -0.46000
C1931       C  0.68021522  0.93434959  0.12882784    -0.05300
C1932       C  0.69801803  0.94830988  0.13599714    -0.22700
H1933       H  0.71802240  0.99179689  0.14490643     0.19100
H1934       H  0.63700622  0.98758952  0.11709982     0.17900
H1935       H  0.64130867  0.03710075  0.11899130     0.14200
H1936       H  0.71497256  0.94317696  0.14104006     0.14100
H1937       H  0.71032600  0.03773684  0.14264429     0.32200
H1938       H  0.64595946  0.94098664  0.11739602     0.35000
C1939       C  0.62279325  0.12479510  0.27124000     0.20600
C1940       C  0.62901529  0.10871359  0.25466200    -0.39300
C1941       C  0.62662179  0.11567315  0.23188217     0.19600
C1942       C  0.61859752  0.13705407  0.22624784     0.22200
C1943       C  0.61229799  0.15298221  0.24269388    -0.39800
C1944       C  0.61473119  0.14606919  0.26526234     0.21000
N1945       N  0.62713791  0.12390776  0.29371921    -0.33100
C1946       C  0.62226495  0.14492312  0.30177130    -0.10600
C1947       C  0.61408167  0.15897543  0.28459116    -0.29400
N1948       N  0.62168301  0.14124354  0.20409962    -0.46000
C1949       C  0.63193323  0.12263927  0.19530019    -0.05300
C1950       C  0.63495648  0.10605424  0.21204343    -0.22700
H1951       H  0.63681755  0.09268673  0.25916109     0.19100
H1952       H  0.60763719  0.17020746  0.23824019     0.17900
H1953       H  0.61055691  0.17698646  0.28564523     0.14200
H1954       H  0.64475303  0.09056083  0.21061166     0.14100
H1955       H  0.63521897  0.11075633  0.30247834     0.32200
H1956       H  0.61924602  0.15682691  0.19594263     0.35000
C1957       C  0.63484771  0.22315921  0.11678705     0.20600
C1958       C  0.64062530  0.24567930  0.11131601    -0.39300
C1959       C  0.62949794  0.26262538  0.12388298     0.19600
C1960       C  0.61413425  0.25743244  0.14098111     0.22200
C1961       C  0.60808613  0.23493298  0.14619998    -0.39800
C1962       C  0.61884974  0.21801027  0.13330887     0.21000
N1963       N  0.64598988  0.20431163  0.11032329    -0.33100
C1964       C  0.63700965  0.18700463  0.12265211    -0.10600
C1965       C  0.61971288  0.19484521  0.13687350    -0.29400
N1966       N  0.60934806  0.27601708  0.15331442    -0.46000
C1967       C  0.62157285  0.29322657  0.14399423    -0.05300
C1968       C  0.63403703  0.28560962  0.12530970    -0.22700
H1969       H  0.65407204  0.24966173  0.09935381     0.19100
H1970       H  0.59711394  0.23083802  0.16042369     0.17900
H1971       H  0.61143431  0.18550801  0.15042490     0.14200
H1972       H  0.64701361  0.29488504  0.11607650     0.14100
H1973       H  0.66049026  0.20363658  0.10003276     0.32200
H1974       H  0.60004891  0.27652494  0.16845417     0.35000
C1975       C  0.98289110  0.10619964  0.31535337     0.20600
C1976       C  0.00238842  0.09911887  0.30365569    -0.39300
C1977       C  0.02317300  0.10525521  0.31346531     0.19600
C1978       C  0.02460177  0.11757761  0.33342062     0.22200
C1979       C  0.00498578  0.12461476  0.34524597    -0.39800
C1980       C  0.98405979  0.11840981  0.33540244     0.21000
N1981       N  0.96118951  0.10273300  0.30921215    -0.33100
C1982       C  0.94827109  0.11268153  0.32546386    -0.10600
C1983       C  0.96190425  0.12269958  0.34212302    -0.29400
N1984       N  0.04654096  0.12186461  0.33862657    -0.46000
C1985       C  0.05898437  0.11220186  0.32175261    -0.05300
C1986       C  0.04496748  0.10159989  0.30590403    -0.22700
H1987       H  0.00144184  0.08971945  0.28789542     0.19100
H1988       H  0.00593205  0.13438012  0.36077706     0.17900
H1989       H  0.95635974  0.13202280  0.35696377     0.14200
H1990       H  0.05005415  0.09279413  0.29058499     0.14100
H1991       H  0.95551612  0.09421238  0.29472896     0.32200
H1992       H  0.05262695  0.13106772  0.35250582     0.35000
C1993       C  0.86972585  0.97077098  0.31597913     0.20600
C1994       C  0.86882117  0.98997861  0.30184648    -0.39300
C1995       C  0.86928428  0.01107091  0.31288747     0.19600
C1996       C  0.87076220  0.01296586  0.33626296     0.22200
C1997       C  0.87123524  0.99367225  0.35047791    -0.39800
C1998       C  0.87055402  0.97247143  0.33940686     0.21000
N1999       N  0.87075184  0.94894187  0.30944953    -0.33100
C2000       C  0.87201543  0.93641697  0.32875854    -0.10600
C2001       C  0.87169251  0.95049855  0.34788967    -0.29400
N2002       N  0.87244492  0.03497289  0.34239363    -0.46000
C2003       C  0.87183199  0.04714175  0.32277264    -0.05300
C2004       C  0.86968229  0.03277044  0.30405503    -0.22700
H2005       H  0.86832300  0.98859601  0.28352015     0.19100
H2006       H  0.87254215  0.99505951  0.36875915     0.17900
H2007       H  0.87299503  0.94541183  0.36551105     0.14200
H2008       H  0.86932769  0.03753375  0.28629227     0.14100
H2009       H  0.87081872  0.94289781  0.29277161     0.32200
H2010       H  0.87425157  0.04130649  0.35885716     0.35000
C2011       C  0.78296518  0.11846739  0.24893271     0.20600
C2012       C  0.76015931  0.12372573  0.24428586    -0.39300
C2013       C  0.75243707  0.11776451  0.22259902     0.19600
C2014       C  0.76640409  0.10745181  0.20669930     0.22200
C2015       C  0.78925256  0.10222542  0.21132911    -0.39800
C2016       C  0.79696486  0.10812643  0.23307643     0.21000
N2017       N  0.79464961  0.12356878  0.26781933    -0.33100
C2018       C  0.81629253  0.11657596  0.26395770    -0.10600
C2019       C  0.81839950  0.10672407  0.24250706    -0.29400
N2020       N  0.75544731  0.10500274  0.18684942    -0.46000
C2021       C  0.73439712  0.11387118  0.19014385    -0.05300
C2022       C  0.73182975  0.12187056  0.21227511    -0.22700
H2023       H  0.74939874  0.13238100  0.25645001     0.19100
H2024       H  0.80036311  0.09471284  0.19872297     0.17900
H2025       H  0.83371914  0.10028807  0.23455194     0.14200
H2026       H  0.71733786  0.13071517  0.21941296     0.14100
H2027       H  0.78846509  0.13205181  0.28213115     0.32200
H2028       H  0.76222623  0.09868592  0.17170511     0.35000
C2029       C  0.73482609  0.13225381  0.37888771     0.20600
C2030       C  0.75645819  0.13772430  0.38752088    -0.39300
C2031       C  0.77513577  0.12863065  0.37568979     0.19600
C2032       C  0.77243530  0.11481581  0.35687428     0.22200
C2033       C  0.75084905  0.10967071  0.34800908    -0.39800
C2034       C  0.73220014  0.11903628  0.35963652     0.21000
N2035       N  0.71474280  0.14126132  0.38523013    -0.33100
C2036       C  0.69929846  0.13418849  0.36967513    -0.10600
C2037       C  0.70956144  0.12025890  0.35346246    -0.29400
N2038       N  0.79270396  0.11028480  0.34726619    -0.46000
C2039       C  0.80842143  0.12155726  0.35974364    -0.05300
C2040       C  0.79813222  0.13326508  0.37760492    -0.22700
H2041       H  0.75861605  0.14933649  0.40159023     0.19100
H2042       H  0.74880334  0.10021800  0.33238651     0.17900
H2043       H  0.70193851  0.11368908  0.33808307     0.14200
H2044       H  0.80614777  0.14503639  0.38921957     0.14100
H2045       H  0.71214266  0.15336318  0.39793077     0.32200
H2046       H  0.79549551  0.10179373  0.33193875     0.35000
C2047       C  0.82287098  0.47062004  0.36563071     0.20600
C2048       C  0.81056240  0.49020674  0.35997267    -0.39300
C2049       C  0.82095706  0.51091152  0.36539884     0.19600
C2050       C  0.84208954  0.51218259  0.37568246     0.22200
C2051       C  0.85451854  0.49246855  0.38131464    -0.39800
C2052       C  0.84404883  0.47160711  0.37586990     0.21000
N2053       N  0.81602205  0.44901290  0.36314062    -0.33100
C2054       C  0.83283954  0.43587774  0.37182979    -0.10600
C2055       C  0.85074509  0.44936993  0.37986642    -0.29400
N2056       N  0.84761265  0.53403036  0.37996071    -0.46000
C2057       C  0.82974617  0.54662378  0.37243468    -0.05300
C2058       C  0.81292382  0.53272811  0.36314723    -0.22700
H2059       H  0.79382441  0.48937078  0.35234060     0.19100
H2060       H  0.87087133  0.49329436  0.38972858     0.17900
H2061       H  0.86615269  0.44372109  0.38820115     0.14200
H2062       H  0.79664625  0.53787913  0.35624418     0.14100
H2063       H  0.80051152  0.44354163  0.35640877     0.32200
H2064       H  0.86228641  0.53994571  0.38803005     0.35000
C2065       C  0.70824008  0.37654927  0.27121701     0.20600
C2066       C  0.71404035  0.38027693  0.29403993    -0.39300
C2067       C  0.73712387  0.37740757  0.29952723     0.19600
C2068       C  0.75328149  0.37126227  0.28352751     0.22200
C2069       C  0.74752169  0.36776450  0.26062247    -0.39800
C2070       C  0.72439450  0.37057996  0.25514215     0.21000
N2071       N  0.68717064  0.37597522  0.26224985    -0.33100
C2072       C  0.68985571  0.36935969  0.24035390    -0.10600
C2073       C  0.71287402  0.36609722  0.23523615    -0.29400
N2074       N  0.77349783  0.36719903  0.29354200    -0.46000
C2075       C  0.77013197  0.37068634  0.31608919    -0.05300
C2076       C  0.74773522  0.37737800  0.32038262    -0.22700
H2077       H  0.70132927  0.38407126  0.30681783     0.19100
H2078       H  0.75991902  0.36216174  0.24821233     0.17900
H2079       H  0.72007203  0.35996738  0.21945176     0.14200
H2080       H  0.73985497  0.38022768  0.33676753     0.14100
H2081       H  0.67182779  0.37865473  0.27084331     0.32200
H2082       H  0.78829830  0.36123791  0.28569527     0.35000
C2083       C  0.88705974  0.26310528  0.37770486     0.20600
C2084       C  0.90038983  0.24707521  0.36598436    -0.39300
C2085       C  0.89418316  0.22416232  0.36884006     0.19600
C2086       C  0.87650222  0.21759229  0.38298968     0.22200
C2087       C  0.86316299  0.23358302  0.39464920    -0.39800
C2088       C  0.86890146  0.25648775  0.39122687     0.21000
N2089       N  0.88635215  0.28566608  0.37377482    -0.33100
C2090       C  0.86715334  0.29331882  0.38406216    -0.10600
C2091       C  0.85612766  0.27564595  0.39548325    -0.29400
N2092       N  0.87148565  0.19549776  0.37994191    -0.46000
C2093       C  0.88542547  0.18801363  0.36318789    -0.05300
C2094       C  0.90000460  0.20538247  0.35600815    -0.22700
H2095       H  0.91316273  0.25221219  0.35373223     0.19100
H2096       H  0.84798041  0.22865268  0.40387989     0.17900
H2097       H  0.83937467  0.27616867  0.40318355     0.14200
H2098       H  0.91138078  0.20505845  0.34152238     0.14100
H2099       H  0.89642895  0.29463686  0.36219338     0.32200
H2100       H  0.85746267  0.18686492  0.38667960     0.35000
C2101       C  0.73799289  0.29167652  0.40169498     0.20600
C2102       C  0.71472384  0.28668130  0.40450667    -0.39300
C2103       C  0.70813397  0.26432712  0.39926851     0.19600
C2104       C  0.72360028  0.24814345  0.39198871     0.22200
C2105       C  0.74678985  0.25305225  0.38934456    -0.39800
C2106       C  0.75330642  0.27537879  0.39431590     0.21000
N2107       N  0.74782916  0.31237721  0.40180525    -0.33100
C2108       C  0.76931819  0.30917632  0.39395881    -0.10600
C2109       C  0.77337952  0.28632313  0.38944189    -0.29400
N2110       N  0.71286554  0.22909442  0.38547974    -0.46000
C2111       C  0.69034859  0.23314496  0.38839745    -0.05300
C2112       C  0.68671620  0.25485194  0.39724239    -0.22700
H2113       H  0.70242191  0.29962765  0.40893085     0.19100
H2114       H  0.75862143  0.24082028  0.38234178     0.17900
H2115       H  0.78823095  0.27909736  0.38126788     0.14200
H2116       H  0.67053847  0.26313934  0.40022316     0.14100
H2117       H  0.73971623  0.32791794  0.40453787     0.32200
H2118       H  0.72032420  0.21471557  0.37823448     0.35000
C2119       C  0.98278363  0.32627089  0.12797228     0.20600
C2120       C  0.00246697  0.33801903  0.13504351    -0.39300
C2121       C  0.02345503  0.32773762  0.12957024     0.19600
C2122       C  0.02461848  0.30733003  0.11800369     0.22200
C2123       C  0.00504223  0.29566023  0.11094123    -0.39800
C2124       C  0.98418571  0.30592586  0.11633139     0.21000
N2125       N  0.96079562  0.33206031  0.13142701    -0.33100
C2126       C  0.94820111  0.31521380  0.12190503    -0.10600
C2127       C  0.96226987  0.29872526  0.11226313    -0.29400
N2128       N  0.04637486  0.30098708  0.11487158    -0.46000
C2129       C  0.05939785  0.31741875  0.12441729    -0.05300
C2130       C  0.04568659  0.33444122  0.13381921    -0.22700
H2131       H  0.00151775  0.35391151  0.14420140     0.19100
H2132       H  0.00598220  0.27966004  0.10196311     0.17900
H2133       H  0.95712572  0.28324750  0.10380011     0.14200
H2134       H  0.05122457  0.34964092  0.14252288     0.14100
H2135       H  0.95474977  0.34635677  0.14000572     0.32200
H2136       H  0.05203189  0.28632264  0.10664933     0.35000
C2137       C  0.79920386  0.22004019  0.10937933     0.20600
C2138       C  0.79383115  0.19733937  0.10419991    -0.39300
C2139       C  0.77110069  0.19087365  0.10811844     0.19600
C2140       C  0.75519722  0.20588918  0.11683753     0.22200
C2141       C  0.76051727  0.22846718  0.12192427    -0.39800
C2142       C  0.78302976  0.23494820  0.11775815     0.21000
N2143       N  0.81989922  0.22988349  0.10917764    -0.33100
C2144       C  0.81673265  0.25108905  0.11761650    -0.10600
C2145       C  0.79392808  0.25490902  0.12287324    -0.29400
N2146       N  0.73559256  0.19522918  0.12142807    -0.46000
C2147       C  0.73877574  0.17327422  0.11548353    -0.05300
C2148       C  0.76067849  0.16981889  0.10691714    -0.22700
H2149       H  0.80657457  0.18539685  0.09840533     0.19100
H2150       H  0.74823438  0.23990702  0.12947713     0.17900
H2151       H  0.78658628  0.26975147  0.13086726     0.14200
H2152       H  0.76851307  0.15380810  0.10243396     0.14100
H2153       H  0.83535325  0.22224348  0.10483452     0.32200
H2154       H  0.72129267  0.20218066  0.12939637     0.35000
C2155       C  0.89544491  0.23386027  0.21438489     0.20600
C2156       C  0.89051686  0.22929356  0.23712287    -0.39300
C2157       C  0.89612523  0.20756392  0.24467371     0.19600
C2158       C  0.90590679  0.19133916  0.23072039     0.22200
C2159       C  0.91104459  0.19602280  0.20780588    -0.39800
C2160       C  0.90549020  0.21800111  0.20018439     0.21000
N2161       N  0.88869679  0.25209657  0.20267023    -0.33100
C2162       C  0.89441967  0.24805287  0.18081481    -0.10600
C2163       C  0.90528149  0.22710875  0.17848758    -0.29400
N2164       N  0.90622950  0.17097952  0.24124437    -0.46000
C2165       C  0.89622570  0.17450436  0.26174211    -0.05300
C2166       C  0.89009331  0.19711051  0.26452559    -0.22700
H2167       H  0.88151328  0.24130033  0.24776469     0.19100
H2168       H  0.91752016  0.18312297  0.19642736     0.17900
H2169       H  0.91013862  0.21875091  0.16285412     0.14200
H2170       H  0.88030715  0.20438785  0.27831896     0.14100
H2171       H  0.87929134  0.26581401  0.20889464     0.32200
H2172       H  0.91074309  0.15538558  0.23410924     0.35000
C2173       C  0.88140061  0.35999755  0.23152616     0.20600
C2174       C  0.87295586  0.37467945  0.24846398    -0.39300
C2175       C  0.87588305  0.36741244  0.27111169     0.19600
C2176       C  0.88630413  0.34698111  0.27633379     0.22200
C2177       C  0.89480620  0.33246487  0.25953429    -0.39800
C2178       C  0.89197144  0.33973553  0.23707633     0.21000
N2179       N  0.87744046  0.36104636  0.20894513    -0.33100
C2180       C  0.88517371  0.34111633  0.20030039    -0.10600
C2181       C  0.89467550  0.32767406  0.21733731    -0.29400
N2182       N  0.88374498  0.34199580  0.29843584    -0.46000
C2183       C  0.87167032  0.35927075  0.30762279    -0.05300
C2184       C  0.86664827  0.37566501  0.29116416    -0.22700
H2185       H  0.86340189  0.38982480  0.24428418     0.19100
H2186       H  0.90160447  0.31586732  0.26359841     0.17900
H2187       H  0.90026878  0.31021381  0.21587768     0.14200
H2188       H  0.85544087  0.39013203  0.29301479     0.14100
H2189       H  0.86777068  0.37326677  0.20044678     0.32200
H2190       H  0.88818045  0.32676494  0.30640294     0.35000
C2191       C  0.77159333  0.35051980  0.12546676     0.20600
C2192       C  0.74985422  0.34538263  0.11678087    -0.39300
C2193       C  0.73121578  0.35398850  0.12912771     0.19600
C2194       C  0.73407272  0.36692835  0.14852734     0.22200
C2195       C  0.75572891  0.37164394  0.15745957    -0.39800
C2196       C  0.77430840  0.36288130  0.14525617     0.21000
N2197       N  0.79177918  0.34220822  0.11837443    -0.33100
C2198       C  0.80738556  0.34892856  0.13397110    -0.10600
C2199       C  0.79706655  0.36184098  0.15098095    -0.29400
N2200       N  0.71386010  0.37131457  0.15834183    -0.46000
C2201       C  0.69793732  0.36090406  0.14537714    -0.05300
C2202       C  0.70810799  0.34980125  0.12702414    -0.22700
H2203       H  0.74759648  0.33452112  0.10213942     0.19100
H2204       H  0.75789723  0.38050272  0.17341082     0.17900
H2205       H  0.80483402  0.36796841  0.16647095     0.14200
H2206       H  0.69991798  0.33870785  0.11487704     0.14100
H2207       H  0.79441685  0.33083743  0.10502330     0.32200
H2208       H  0.71119807  0.37922592  0.17399946     0.35000
C2209       C  0.63167004  0.80431325  0.47891214     0.20600
C2210       C  0.63428328  0.79088904  0.49840048    -0.39300
C2211       C  0.63346288  0.80247767  0.51913463     0.19600
C2212       C  0.63013307  0.82569771  0.52048305     0.22200
C2213       C  0.62789666  0.83924905  0.50086221    -0.39800
C2214       C  0.62890668  0.82762981  0.47998314     0.21000
N2215       N  0.63093441  0.79707916  0.45733677    -0.33100
C2216       C  0.62797880  0.81584610  0.44435408    -0.10600
C2217       C  0.62679850  0.83534748  0.45782787    -0.29400
N2218       N  0.62890401  0.83233089  0.54237469    -0.46000
C2219       C  0.63164064  0.81316002  0.55493140    -0.05300
C2220       C  0.63464652  0.79427495  0.54097724    -0.22700
H2221       H  0.63640560  0.77265572  0.49749300     0.19100
H2222       H  0.62522473  0.85740359  0.50178910     0.17900
H2223       H  0.62413305  0.85265255  0.45223433     0.14200
H2224       H  0.63680344  0.77676127  0.54614619     0.14100
H2225       H  0.63237120  0.78031292  0.45173656     0.32200
H2226       H  0.62613942  0.84877822  0.54838631     0.35000
C2227       C  0.60877304  0.69869738  0.73649649     0.20600
C2228       C  0.60337042  0.70253034  0.71356242    -0.39300
C2229       C  0.60820441  0.72435112  0.70525226     0.19600
C2230       C  0.61785043  0.74094336  0.71883661     0.22200
C2231       C  0.62300176  0.73720143  0.74178821    -0.39800
C2232       C  0.61808068  0.71546023  0.75009495     0.21000
N2233       N  0.60863522  0.67870291  0.74746806    -0.33100
C2234       C  0.61810864  0.68269647  0.76807230    -0.10600
C2235       C  0.62384442  0.70553735  0.77051155    -0.29400
N2236       N  0.62372995  0.75907082  0.70636967    -0.46000
C2237       C  0.61779152  0.75413462  0.68472077    -0.05300
C2238       C  0.60772116  0.73273588  0.68329640    -0.22700
H2239       H  0.59710865  0.68912276  0.70267184     0.19100
H2240       H  0.63149606  0.74987066  0.75204472     0.17900
H2241       H  0.63294007  0.71334508  0.78444921     0.14200
H2242       H  0.60283617  0.72371629  0.66805438     0.14100
H2243       H  0.60392972  0.66298740  0.74073034     0.32200
H2244       H  0.63258073  0.77339717  0.71198172     0.35000
C2245       C  0.82260238  0.60802389  0.52252406     0.20600
C2246       C  0.81141692  0.60014709  0.50308515    -0.39300
C2247       C  0.82030357  0.60766144  0.48235026     0.19600
C2248       C  0.83895231  0.62198288  0.48099310     0.22200
C2249       C  0.85014218  0.63001044  0.50054949    -0.39800
C2250       C  0.84123311  0.62240043  0.52142602     0.21000
N2251       N  0.81714240  0.60337570  0.54412842    -0.33100
C2252       C  0.83230607  0.61479481  0.55711969    -0.10600
C2253       C  0.84771516  0.62690878  0.54358916    -0.29400
N2254       N  0.84408258  0.62641981  0.45913682    -0.46000
C2255       C  0.82853393  0.61483448  0.44662546    -0.05300
C2256       C  0.81340884  0.60300388  0.46053737    -0.22700
H2257       H  0.79682146  0.58895108  0.50405391     0.19100
H2258       H  0.86467539  0.64128387  0.49957771     0.17900
H2259       H  0.86142962  0.63782784  0.54918618     0.14200
H2260       H  0.79934055  0.59231667  0.45537236     0.14100
H2261       H  0.80364984  0.59321882  0.54971102     0.32200
H2262       H  0.85730118  0.63667337  0.45310585     0.35000
C2263       C  0.75196576  0.70900424  0.60719238     0.20600
C2264       C  0.74780916  0.73171899  0.61297158    -0.39300
C2265       C  0.72509853  0.73876462  0.61167312     0.19600
C2266       C  0.70781228  0.72428516  0.60494889     0.22200
C2267       C  0.71198920  0.70154993  0.59897708    -0.39800
C2268       C  0.73476783  0.69442086  0.60040346     0.21000
N2269       N  0.77123355  0.69747811  0.61100091    -0.33100
C2270       C  0.76642334  0.67537121  0.60693808    -0.10600
C2271       C  0.74391381  0.67276026  0.59982236    -0.29400
N2272       N  0.68744539  0.73433636  0.60755829    -0.46000
C2273       C  0.69179140  0.75524631  0.61618314    -0.05300
C2274       C  0.71512330  0.75872150  0.61878055    -0.22700
H2275       H  0.76108116  0.74266157  0.61950955     0.19100
H2276       H  0.69831282  0.68989334  0.59499598     0.17900
H2277       H  0.73470353  0.65698623  0.59766744     0.14200
H2278       H  0.72353441  0.77331460  0.62615016     0.14100
H2279       H  0.78609642  0.70391164  0.61832383     0.32200
H2280       H  0.67150066  0.72698149  0.60476982     0.35000
C2281       C  0.74925528  0.61815983  0.71861019     0.20600
C2282       C  0.74308153  0.62448235  0.74064506    -0.39300
C2283       C  0.72146540  0.61745489  0.74769071     0.19600
C2284       C  0.70703104  0.60490975  0.73396650     0.22200
C2285       C  0.71317970  0.59872727  0.71175761    -0.39800
C2286       C  0.73484936  0.60589948  0.70461683     0.21000
N2287       N  0.76827380  0.62413769  0.70753884    -0.33100
C2288       C  0.76595381  0.61585550  0.68624295    -0.10600
C2289       C  0.74536775  0.60428187  0.68372238    -0.29400
N2290       N  0.68662463  0.60214745  0.74403856    -0.46000
C2291       C  0.68814008  0.61345406  0.76399947    -0.05300
C2292       C  0.70960767  0.62300652  0.76693954    -0.22700
H2293       H  0.75395465  0.63490008  0.75120150     0.19100
H2294       H  0.70163796  0.58977113  0.70059487     0.17900
H2295       H  0.73863855  0.59657171  0.66846144     0.14200
H2296       H  0.71521862  0.63390482  0.78063602     0.14100
H2297       H  0.78157604  0.63410143  0.71381145     0.32200
H2298       H  0.67210074  0.59469892  0.73703181     0.35000
C2299       C  0.68556049  0.87213579  0.97881110     0.20600
C2300       C  0.69775298  0.87781787  0.99845875    -0.39300
C2301       C  0.68765863  0.87150941  0.01911295     0.19600
C2302       C  0.66694935  0.86034644  0.02029939     0.22200
C2303       C  0.65471647  0.85456194  0.00053664    -0.39800
C2304       C  0.66486608  0.86090874  0.97973592     0.21000
N2305       N  0.69164606  0.87634988  0.95719399    -0.33100
C2306       C  0.67479652  0.86776104  0.94402123    -0.10600
C2307       C  0.65775248  0.85794105  0.95749483    -0.29400
N2308       N  0.66102609  0.85659324  0.04217244    -0.46000
C2309       C  0.67813038  0.86555887  0.05486264    -0.05300
C2310       C  0.69501590  0.87486402  0.04100325    -0.22700
H2311       H  0.71392997  0.88661245  0.99772447     0.19100
H2312       H  0.63850075  0.84584752  0.00128673     0.17900
H2313       H  0.64232243  0.84968670  0.95178905     0.14200
H2314       H  0.71056904  0.88318776  0.04628061     0.14100
H2315       H  0.70649402  0.88448369  0.95172437     0.32200
H2316       H  0.64626303  0.84861869  0.04807845     0.35000
C2317       C  0.63211305  0.87275328  0.76984223     0.20600
C2318       C  0.63770731  0.88095075  0.74800401    -0.39300
C2319       C  0.62915753  0.86835914  0.72954028     0.19600
C2320       C  0.61611957  0.84903891  0.73278436     0.22200
C2321       C  0.61072060  0.84077771  0.75448617    -0.39800
C2322       C  0.61919452  0.85331497  0.77281045     0.21000
N2323       N  0.64096015  0.87951316  0.78984992    -0.33100
C2324       C  0.63397616  0.86403852  0.80550427    -0.10600
C2325       C  0.62023360  0.84758048  0.79547048    -0.29400
N2326       N  0.61312841  0.83802972  0.71310091    -0.46000
C2327       C  0.62447320  0.85002991  0.69700753    -0.05300
C2328       C  0.63442323  0.86938605  0.70654024    -0.22700
H2329       H  0.64914799  0.89516714  0.74558406     0.19100
H2330       H  0.60193757  0.82478617  0.75690462     0.17900
H2331       H  0.61409691  0.83204250  0.80320123     0.14200
H2332       H  0.64637771  0.88083242  0.69845184     0.14100
H2333       H  0.65314304  0.89222072  0.79222107     0.32200
H2334       H  0.60586244  0.82194737  0.71114761     0.35000
C2335       C  0.62288252  0.76284698  0.87598875     0.20600
C2336       C  0.60955394  0.74543520  0.86634176    -0.39300
C2337       C  0.61671552  0.72301769  0.87079084     0.19600
C2338       C  0.63578820  0.71841320  0.88380254     0.22200
C2339       C  0.64891691  0.73569521  0.89354658    -0.39800
C2340       C  0.64178446  0.75794752  0.88913484     0.21000
N2341       N  0.62229499  0.78521434  0.87088626    -0.33100
C2342       C  0.64117882  0.79439648  0.88050996    -0.10600
C2343       C  0.65345163  0.77790835  0.89228033    -0.29400
N2344       N  0.64164145  0.69644920  0.88210209    -0.46000
C2345       C  0.62630119  0.68674698  0.86797594    -0.05300
C2346       C  0.61025776  0.70273497  0.86076231    -0.22700
H2347       H  0.59575488  0.74908973  0.85473319     0.19100
H2348       H  0.66471255  0.73211723  0.90230819     0.17900
H2349       H  0.67026413  0.77974119  0.89959418     0.14200
H2350       H  0.59761184  0.70054011  0.84758655     0.14100
H2351       H  0.61141051  0.79311127  0.85929611     0.32200
H2352       H  0.65656126  0.68901618  0.88826895     0.35000
C2353       C  0.87665818  0.65653867  0.98394547     0.20600
C2354       C  0.87498764  0.64240359  0.00325640    -0.39300
C2355       C  0.87743621  0.65335217  0.02441915     0.19600
C2356       C  0.88157330  0.67644530  0.02596326     0.22200
C2357       C  0.88299434  0.69046592  0.00684581    -0.39800
C2358       C  0.88020670  0.67968333  0.98592417     0.21000
N2359       N  0.87478432  0.65066470  0.96185932    -0.33100
C2360       C  0.87677191  0.67038069  0.94998364    -0.10600
C2361       C  0.88015450  0.68873198  0.96445867    -0.29400
N2362       N  0.88342236  0.68295246  0.04765896    -0.46000
C2363       C  0.88020381  0.66405828  0.06034300    -0.05300
C2364       C  0.87632434  0.64512909  0.04649371    -0.22700
H2365       H  0.87185578  0.62434444  0.00192070     0.19100
H2366       H  0.88587947  0.70856871  0.00818961     0.17900
H2367       H  0.88245004  0.70638424  0.95983692     0.14200
H2368       H  0.87318747  0.62781220  0.05182616     0.14100
H2369       H  0.87200250  0.63442726  0.95531216     0.32200
H2370       H  0.88635133  0.69943378  0.05351973     0.35000
C2371       C  0.88339112  0.64373865  0.76906805     0.20600
C2372       C  0.88831998  0.65151835  0.74708257    -0.39300
C2373       C  0.87951039  0.63849364  0.72924779     0.19600
C2374       C  0.86665368  0.61913194  0.73294247     0.22200
C2375       C  0.86150359  0.61145466  0.75506018    -0.39800
C2376       C  0.87050854  0.62444010  0.77300802     0.21000
N2377       N  0.88751418  0.65473227  0.78856415    -0.33100
C2378       C  0.87726564  0.64252768  0.80522523    -0.10600
C2379       C  0.86661263  0.62331557  0.79623172    -0.29400
N2380       N  0.85801819  0.61142526  0.71318241    -0.46000
C2381       C  0.86518146  0.62617966  0.69692377    -0.05300
C2382       C  0.87867232  0.64320272  0.70634971    -0.22700
H2383       H  0.89732844  0.66728865  0.74409811     0.19100
H2384       H  0.85038852  0.59709398  0.75806960     0.17900
H2385       H  0.85544418  0.61162457  0.80505820     0.14200
H2386       H  0.88517293  0.65820647  0.69789303     0.14100
H2387       H  0.89524509  0.67063022  0.79022875     0.32200
H2388       H  0.84618460  0.59832970  0.71120025     0.35000
C2389       C  0.77120359  0.62732121  0.88424892     0.20600
C2390       C  0.74900287  0.63096963  0.89262783    -0.39300
C2391       C  0.73118422  0.62131789  0.87987601     0.19600
C2392       C  0.73535853  0.60892328  0.86034001     0.22200
C2393       C  0.75740614  0.60546089  0.85191399    -0.39800
C2394       C  0.77507202  0.61518169  0.86449880     0.21000
N2395       N  0.79054776  0.63750938  0.89115943    -0.33100
C2396       C  0.80659134  0.63216087  0.87542778    -0.10600
C2397       C  0.79756319  0.61819123  0.85864827    -0.29400
N2398       N  0.71593583  0.60486401  0.84915767    -0.46000
C2399       C  0.69911486  0.61499692  0.86119788    -0.05300
C2400       C  0.70787973  0.62510883  0.88080383    -0.22700
H2401       H  0.74575281  0.64190332  0.90703528     0.19100
H2402       H  0.76043579  0.59729168  0.83572474     0.17900
H2403       H  0.80575389  0.61292699  0.84302877     0.14200
H2404       H  0.69902069  0.63644529  0.89226042     0.14100
H2405       H  0.79214209  0.64931361  0.90429155     0.32200
H2406       H  0.71454879  0.59795421  0.83287298     0.35000
C2407       C  0.78092814  0.74767903  0.89245772     0.20600
C2408       C  0.75829000  0.75293700  0.88724693    -0.39300
C2409       C  0.75209545  0.77567083  0.89016133     0.19600
C2410       C  0.76714717  0.79194976  0.89811546     0.22200
C2411       C  0.78981953  0.78666035  0.90338344    -0.39800
C2412       C  0.79613942  0.76393746  0.90012623     0.21000
N2413       N  0.79174638  0.72821565  0.88771173    -0.33100
C2414       C  0.81405329  0.73220354  0.89193796    -0.10600
C2415       C  0.81743416  0.75414843  0.90012539    -0.29400
N2416       N  0.75787379  0.81276435  0.89676271    -0.46000
C2417       C  0.73708280  0.80960718  0.88739778    -0.05300
C2418       C  0.73277673  0.78677068  0.88322554    -0.22700
H2419       H  0.74681469  0.74058231  0.87989425     0.19100
H2420       H  0.80202466  0.79957393  0.90815574     0.17900
H2421       H  0.83351684  0.76248903  0.90344394     0.14200
H2422       H  0.71816036  0.77951209  0.87470435     0.14100
H2423       H  0.78466540  0.71379014  0.88019259     0.32200
H2424       H  0.76588045  0.82824738  0.90009435     0.35000
C2425       C  0.87739070  0.76584630  0.61888748     0.20600
C2426       C  0.86463457  0.74977004  0.60670376    -0.39300
C2427       C  0.86870729  0.72688349  0.61210489     0.19600
C2428       C  0.88469495  0.72037010  0.62810181     0.22200
C2429       C  0.89731235  0.73643659  0.64040990    -0.39800
C2430       C  0.89289684  0.75932903  0.63535326     0.21000
N2431       N  0.87326600  0.78831034  0.62013896    -0.33100
C2432       C  0.88553112  0.79602696  0.63802617    -0.10600
C2433       C  0.89829351  0.77848854  0.64763459    -0.29400
N2434       N  0.88277783  0.69806394  0.63280586    -0.46000
C2435       C  0.86500274  0.69042919  0.62030293    -0.05300
C2436       C  0.85598745  0.70788139  0.60699235    -0.22700
H2437       H  0.85103489  0.75478110  0.59536440     0.19100
H2438       H  0.90823066  0.73151717  0.65437267     0.17900
H2439       H  0.90772987  0.77905678  0.66341001     0.14200
H2440       H  0.84051043  0.70735219  0.59703371     0.14100
H2441       H  0.86047853  0.79713263  0.61152931     0.32200
H2442       H  0.89107190  0.68929371  0.64582340     0.35000
C2443       C  0.89992496  0.79231393  0.77205724     0.20600
C2444       C  0.90603928  0.78770540  0.79480381    -0.39300
C2445       C  0.89987205  0.76606827  0.80317603     0.19600
C2446       C  0.88846070  0.75045478  0.78978801     0.22200
C2447       C  0.88259980  0.75494247  0.76722788    -0.39800
C2448       C  0.88867044  0.77635547  0.75898360     0.21000
N2449       N  0.90134318  0.81228063  0.76075832    -0.33100
C2450       C  0.89064406  0.80881185  0.74058050    -0.10600
C2451       C  0.88271419  0.78660860  0.73894400    -0.29400
N2452       N  0.88164217  0.73257924  0.80212016    -0.46000
C2453       C  0.88857346  0.73656638  0.82363495    -0.05300
C2454       C  0.90045660  0.75711818  0.82501961    -0.22700
H2455       H  0.91386054  0.80041124  0.80552743     0.19100
H2456       H  0.87274808  0.74308198  0.75721139     0.17900
H2457       H  0.87246271  0.77940149  0.72548661     0.14200
H2458       H  0.90665932  0.76535130  0.84022526     0.14100
H2459       H  0.90757112  0.82765627  0.76702535     0.32200
H2460       H  0.87154957  0.71908211  0.79652762     0.35000
C2461       C  0.77681548  0.85460436  0.62305293     0.20600
C2462       C  0.75907081  0.84261780  0.61245380    -0.39300
C2463       C  0.73688588  0.85010304  0.61732664     0.19600
C2464       C  0.73264564  0.86781085  0.63216614     0.22200
C2465       C  0.75042403  0.87990437  0.64267617    -0.39800
C2466       C  0.77266916  0.87280633  0.63731259     0.21000
N2467       N  0.79903938  0.84905250  0.62331944    -0.33100
C2468       C  0.80928852  0.86398308  0.63754299    -0.10600
C2469       C  0.79339139  0.87919063  0.64647943    -0.29400
N2470       N  0.71020312  0.86924385  0.63675446    -0.46000
C2471       C  0.70002340  0.85257383  0.62452556    -0.05300
C2472       C  0.71614555  0.84039583  0.61209331    -0.22700
H2473       H  0.76225705  0.82779163  0.60207940     0.19100
H2474       H  0.74715505  0.89312148  0.65501378     0.17900
H2475       H  0.79619443  0.89153536  0.65979273     0.14200
H2476       H  0.71337200  0.82482423  0.60273981     0.14100
H2477       H  0.80652461  0.83492884  0.61561571     0.32200
H2478       H  0.70251718  0.87959889  0.64894875     0.35000
C2479       C  0.78286613  0.87182472  0.75036543     0.20600
C2480       C  0.75959930  0.86860485  0.75496260    -0.39300
C2481       C  0.75287867  0.87196287  0.77762669     0.19600
C2482       C  0.76817539  0.87806344  0.79441924     0.22200
C2483       C  0.79141284  0.88131391  0.78981665    -0.39800
C2484       C  0.79811277  0.87800218  0.76717727     0.21000
N2485       N  0.79385055  0.86773530  0.73071259    -0.33100
C2486       C  0.81625212  0.87120596  0.73511802    -0.10600
C2487       C  0.81952321  0.87788629  0.75760311    -0.29400
N2488       N  0.75793531  0.87840961  0.81486510    -0.46000
C2489       C  0.73597723  0.87231591  0.81115477    -0.05300
C2490       C  0.73214187  0.86834039  0.78808490    -0.22700
H2491       H  0.74776352  0.86304455  0.74203480     0.19100
H2492       H  0.80353836  0.88530058  0.80305653     0.17900
H2493       H  0.83555579  0.88080199  0.76617145     0.14200
H2494       H  0.71662397  0.86231341  0.78022811     0.14100
H2495       H  0.78669107  0.86184864  0.71558869     0.32200
H2496       H  0.76570612  0.88141444  0.83052786     0.35000
C2497       C  0.18689733  0.61821425  0.52315509     0.20600
C2498       C  0.20012049  0.61589041  0.50341609    -0.39300
C2499       C  0.18822216  0.61647415  0.48280038     0.19600
C2500       C  0.16488562  0.61950356  0.48179062     0.22200
C2501       C  0.15152658  0.62150488  0.50166948    -0.39800
C2502       C  0.16346669  0.62058058  0.52245412     0.21000
N2503       N  0.19437598  0.61797149  0.54469347    -0.33100
C2504       C  0.17570572  0.61980135  0.55813968    -0.10600
C2505       C  0.15596557  0.62143682  0.54486442    -0.29400
N2506       N  0.15783366  0.61981829  0.45996317    -0.46000
C2507       C  0.17680824  0.61661150  0.44708852    -0.05300
C2508       C  0.19604273  0.61440210  0.46080438    -0.22700
H2509       H  0.21840471  0.61366863  0.50408230     0.19100
H2510       H  0.13321992  0.62351073  0.50100272     0.17900
H2511       H  0.13857430  0.62300323  0.55077184     0.14200
H2512       H  0.21347099  0.61180997  0.45537627     0.14100
H2513       H  0.21125574  0.61615219  0.54997335     0.32200
H2514       H  0.14114212  0.62178508  0.45418342     0.35000
C2515       C  0.48410609  0.80364233  0.62996764     0.20600
C2516       C  0.50393387  0.79068572  0.62722464    -0.39300
C2517       C  0.52444198  0.80283814  0.62752257     0.19600
C2518       C  0.52526771  0.82609819  0.63077429     0.22200
C2519       C  0.50534097  0.83913585  0.63328032    -0.39800
C2520       C  0.48470459  0.82699937  0.63252101     0.21000
N2521       N  0.46255368  0.79606107  0.62974208    -0.33100
C2522       C  0.44916536  0.81467982  0.63174429    -0.10600
C2523       C  0.46234649  0.83437345  0.63348773    -0.29400
N2524       N  0.54698199  0.83351525  0.63039704    -0.46000
C2525       C  0.55993226  0.81485070  0.62647147    -0.05300
C2526       C  0.54645493  0.79544024  0.62458088    -0.22700
H2527       H  0.50340644  0.77248813  0.62471744     0.19100
H2528       H  0.50585326  0.85738605  0.63533548     0.17900
H2529       H  0.45638765  0.85167753  0.63515477     0.14200
H2530       H  0.55205332  0.77820040  0.62152051     0.14100
H2531       H  0.45723858  0.77924916  0.62775902     0.32200
H2532       H  0.55261127  0.85023097  0.63228528     0.35000
C2533       C  0.37796576  0.80272233  0.48563384     0.20600
C2534       C  0.37867281  0.79031667  0.50594258    -0.39300
C2535       C  0.37791757  0.80310333  0.52596411     0.19600
C2536       C  0.37621995  0.82653445  0.52596158     0.22200
C2537       C  0.37579429  0.83905579  0.50549525    -0.39800
C2538       C  0.37688313  0.82619391  0.48529452     0.21000
N2539       N  0.37826630  0.79429734  0.46446204    -0.33100
C2540       C  0.37755542  0.81239372  0.45024444    -0.10600
C2541       C  0.37687587  0.83269809  0.46260964    -0.29400
N2542       N  0.37584297  0.83451123  0.54748486    -0.46000
C2543       C  0.37775530  0.81595151  0.56110707    -0.05300
C2544       C  0.37904036  0.79614469  0.54821955    -0.22700
H2545       H  0.37985812  0.77197665  0.50613804     0.19100
H2546       H  0.37479972  0.85740248  0.50530771     0.17900
H2547       H  0.37607276  0.84980615  0.45593026     0.14200
H2548       H  0.38078428  0.77889904  0.55436177     0.14100
H2549       H  0.37893978  0.77716247  0.45994216     0.32200
H2550       H  0.37497548  0.85147281  0.55256439     0.35000
C2551       C  0.28540076  0.73935434  0.62232910     0.20600
C2552       C  0.26250282  0.73504274  0.62767169    -0.39300
C2553       C  0.25459049  0.71314444  0.62275054     0.19600
C2554       C  0.26846911  0.69670608  0.61325368     0.22200
C2555       C  0.29139923  0.70111867  0.60764902    -0.39800
C2556       C  0.29933378  0.72314820  0.61249302     0.21000
N2557       N  0.29741404  0.75792874  0.62779152    -0.33100
C2558       C  0.31917979  0.75379440  0.62137008    -0.10600
C2559       C  0.32109044  0.73232203  0.61145216    -0.29400
N2560       N  0.25757209  0.67658444  0.61258816    -0.46000
C2561       C  0.23667842  0.68020920  0.62183236    -0.05300
C2562       C  0.23412939  0.70291786  0.62810991    -0.22700
H2563       H  0.25192825  0.74750983  0.63610840     0.19100
H2564       H  0.30251444  0.68805392  0.60100910     0.17900
H2565       H  0.33654207  0.72386015  0.60608301     0.14200
H2566       H  0.21985595  0.71053765  0.63691500     0.14100
H2567       H  0.29141087  0.77217003  0.63650705     0.32200
H2568       H  0.26439831  0.66106279  0.60738184     0.35000
C2569       C  0.52276949  0.61596488  0.83536970     0.20600
C2570       C  0.50313222  0.61178371  0.84850150    -0.39300
C2571       C  0.48219191  0.61545813  0.83748374     0.19600
C2572       C  0.48107828  0.62283603  0.81517893     0.22200
C2573       C  0.50061214  0.62698112  0.80210738    -0.39800
C2574       C  0.52142104  0.62322493  0.81304284     0.21000
N2575       N  0.54468181  0.61333577  0.84159478    -0.33100
C2576       C  0.55726307  0.61892323  0.82303808    -0.10600
C2577       C  0.54331307  0.62518381  0.80493369    -0.29400
N2578       N  0.45939225  0.62437371  0.80827487    -0.46000
C2579       C  0.44638049  0.61776481  0.82613832    -0.05300
C2580       C  0.45998651  0.61217878  0.84480913    -0.22700
H2581       H  0.50408736  0.60581090  0.86586773     0.19100
H2582       H  0.49966177  0.63243778  0.78456694     0.17900
H2583       H  0.54850508  0.63029128  0.78802617     0.14200
H2584       H  0.45443775  0.60601495  0.86123814     0.14100
H2585       H  0.55069283  0.60789756  0.85737945     0.32200
H2586       H  0.45379695  0.62912824  0.79211520     0.35000
C2587       C  0.28522008  0.60510335  0.74710299     0.20600
C2588       C  0.26282835  0.61105493  0.74168805    -0.39300
C2589       C  0.25563350  0.60540789  0.71980113     0.19600
C2590       C  0.26953149  0.59440585  0.70430608     0.22200
C2591       C  0.29203983  0.58815332  0.70987341    -0.39800
C2592       C  0.29935848  0.59394118  0.73193762     0.21000
N2593       N  0.29671217  0.61142769  0.76568815    -0.33100
C2594       C  0.31839262  0.60428668  0.76264771    -0.10600
C2595       C  0.32075348  0.59297609  0.74189428    -0.29400
N2596       N  0.25949006  0.59379708  0.68368227    -0.46000
C2597       C  0.23937172  0.60488925  0.68622791    -0.05300
C2598       C  0.23634138  0.61205863  0.70853261    -0.22700
H2599       H  0.25224520  0.62075843  0.75320053     0.19100
H2600       H  0.30341261  0.58058992  0.69753769     0.17900
H2601       H  0.33633235  0.58672691  0.73430848     0.14200
H2602       H  0.22267160  0.62248351  0.71513878     0.14100
H2603       H  0.29046517  0.62115581  0.77915801     0.32200
H2604       H  0.26669509  0.58807461  0.66850107     0.35000
C2605       C  0.39561170  0.72681750  0.71140420     0.20600
C2606       C  0.40047664  0.70397136  0.71619717    -0.39300
C2607       C  0.39579555  0.69684475  0.73847522     0.19600
C2608       C  0.38715199  0.71145476  0.75476961     0.22200
C2609       C  0.38256997  0.73431770  0.75005430    -0.39800
C2610       C  0.38705144  0.74138149  0.72777403     0.21000
N2611       N  0.39549652  0.73685565  0.69088688    -0.33100
C2612       C  0.38657579  0.75782557  0.69423561    -0.10600
C2613       C  0.38145160  0.76138085  0.71707392    -0.29400
N2614       N  0.38130408  0.70002023  0.77362296    -0.46000
C2615       C  0.38588161  0.67792820  0.76921565    -0.05300
C2616       C  0.39533488  0.67529284  0.74761842    -0.22700
H2617       H  0.40604161  0.69226042  0.70316619     0.19100
H2618       H  0.37467614  0.74540933  0.76241797     0.17900
H2619       H  0.37298333  0.77591179  0.72450663     0.14200
H2620       H  0.39945654  0.65955486  0.73907473     0.14100
H2621       H  0.39972299  0.72935700  0.67536990     0.32200
H2622       H  0.37311696  0.70661852  0.78793618     0.35000
C2623       C  0.02578143  0.86450662  0.66606016     0.20600
C2624       C  0.00623960  0.85809300  0.65370816    -0.39300
C2625       C  0.98517550  0.86442499  0.66336127     0.19600
C2626       C  0.98391346  0.87630787  0.68360100     0.22200
C2627       C  0.00329707  0.88277995  0.69574783    -0.39800
C2628       C  0.02414550  0.87635810  0.68627589     0.21000
N2629       N  0.04779812  0.86007590  0.66116268    -0.33100
C2630       C  0.06003553  0.86914766  0.67851931    -0.10600
C2631       C  0.04581251  0.87944038  0.69439724    -0.29400
N2632       N  0.96221568  0.87963895  0.68981480    -0.46000
C2633       C  0.94925923  0.86981810  0.67357112    -0.05300
C2634       C  0.96295087  0.86019491  0.65661667    -0.22700
H2635       H  0.00733072  0.84856416  0.63803570     0.19100
H2636       H  0.00219681  0.89181243  0.71171283     0.17900
H2637       H  0.05068755  0.88793840  0.70994243     0.14200
H2638       H  0.95742223  0.85093601  0.64174315     0.14100
H2639       H  0.05407581  0.85130326  0.64707438     0.32200
H2640       H  0.95656289  0.88780773  0.70452213     0.35000
C2641       C  0.11780483  0.76043141  0.64658887     0.20600
C2642       C  0.11195329  0.73871311  0.65443181    -0.39300
C2643       C  0.12146616  0.72045656  0.64254750     0.19600
C2644       C  0.13562852  0.72349883  0.62397489     0.22200
C2645       C  0.14151214  0.74534785  0.61606559    -0.39800
C2646       C  0.13205246  0.76373992  0.62811094     0.21000
N2647       N  0.11430510  0.78001720  0.65762973    -0.33100
C2648       C  0.12649048  0.79607124  0.64646811    -0.10600
C2649       C  0.13750703  0.78667127  0.62761866    -0.29400
N2650       N  0.14504650  0.70355192  0.61782167    -0.46000
C2651       C  0.13708107  0.68786480  0.63278910    -0.05300
C2652       C  0.12229935  0.69781619  0.64839025    -0.22700
H2653       H  0.10215455  0.73624150  0.66983217     0.19100
H2654       H  0.15386902  0.74783857  0.60262551     0.17900
H2655       H  0.15023378  0.79475893  0.61702249     0.14200
H2656       H  0.11500299  0.68998522  0.66337690     0.14100
H2657       H  0.10614621  0.78189091  0.67330740     0.32200
H2658       H  0.15790093  0.70118125  0.60576658     0.35000
C2659       C  0.23495974  0.87653442  0.63950775     0.20600
C2660       C  0.25708695  0.88389855  0.64514354    -0.39300
C2661       C  0.27515554  0.87212784  0.63467636     0.19600
C2662       C  0.27129135  0.85436356  0.61978622     0.22200
C2663       C  0.24929306  0.84706080  0.61418912    -0.39800
C2664       C  0.23136310  0.85872485  0.62462198     0.21000
N2665       N  0.21529424  0.88231966  0.64982496    -0.33100
C2666       C  0.19925321  0.86788285  0.64165943    -0.10600
C2667       C  0.20866196  0.85303318  0.62585009    -0.29400
N2668       N  0.29070404  0.84322799  0.61536578    -0.46000
C2669       C  0.30721216  0.85361547  0.62756747    -0.05300
C2670       C  0.29826515  0.87207335  0.63955508    -0.22700
H2671       H  0.26003191  0.89666362  0.65802129     0.19100
H2672       H  0.24639767  0.83213843  0.60387027     0.17900
H2673       H  0.20053374  0.83839537  0.61825474     0.14200
H2674       H  0.30676516  0.88193352  0.65252909     0.14100
H2675       H  0.21340817  0.89358956  0.66338778     0.32200
H2676       H  0.29218253  0.82787684  0.60660563     0.35000
C2677       C  0.13248581  0.65575351  0.02538948     0.20600
C2678       C  0.13235808  0.64195764  0.00581717    -0.39300
C2679       C  0.13104476  0.65344452  0.98483945     0.19600
C2680       C  0.12977852  0.67686749  0.98359561     0.22200
C2681       C  0.13032094  0.69064564  0.00307186    -0.39800
C2682       C  0.13178985  0.67919086  0.02396625     0.21000
N2683       N  0.13253709  0.64901468  0.04731160    -0.33100
C2684       C  0.13204621  0.66829032  0.05996571    -0.10600
C2685       C  0.13176769  0.68745685  0.04592528    -0.29400
N2686       N  0.12761744  0.68370494  0.96191237    -0.46000
C2687       C  0.12771805  0.66461968  0.94902001    -0.05300
C2688       C  0.12999677  0.64532449  0.96273208    -0.22700
H2689       H  0.13284784  0.62361894  0.00686499     0.19100
H2690       H  0.12926471  0.70896635  0.00204180     0.17900
H2691       H  0.13087978  0.70506377  0.05110195     0.14200
H2692       H  0.13037794  0.62777613  0.95731850     0.14100
H2693       H  0.13262102  0.63231706  0.05330894     0.32200
H2694       H  0.12620122  0.70044363  0.95618970     0.35000
C2695       C  0.98035313  0.68160019  0.88089574     0.20600
C2696       C  0.00024567  0.69455277  0.88314507    -0.39300
C2697       C  0.02072743  0.68265694  0.88059498     0.19600
C2698       C  0.02141169  0.65952362  0.87650647     0.22200
C2699       C  0.00143285  0.64658864  0.87394763    -0.39800
C2700       C  0.98085821  0.65858690  0.87615875     0.21000
N2701       N  0.95884222  0.68894877  0.88292066    -0.33100
C2702       C  0.94541821  0.67061147  0.87921585    -0.10600
C2703       C  0.95849976  0.65131628  0.87478896    -0.29400
N2704       N  0.04310729  0.65221637  0.87536533    -0.46000
C2705       C  0.05622300  0.67094222  0.87835818    -0.05300
C2706       C  0.04286432  0.69022862  0.88161903    -0.22700
H2707       H  0.99980038  0.71258382  0.88666032     0.19100
H2708       H  0.00187563  0.62854111  0.87054476     0.17900
H2709       H  0.95248779  0.63426661  0.87148375     0.14200
H2710       H  0.04861261  0.70742482  0.88465444     0.14100
H2711       H  0.95359075  0.70549706  0.88656567     0.32200
H2712       H  0.04865473  0.63561611  0.87250254     0.35000
C2713       C  0.11904207  0.62130522  0.77442299     0.20600
C2714       C  0.11065853  0.62589960  0.75243690    -0.39300
C2715       C  0.12343620  0.61699712  0.73419814     0.19600
C2716       C  0.14300393  0.60439785  0.73777668     0.22200
C2717       C  0.15131073  0.59979762  0.75961382    -0.39800
C2718       C  0.13871715  0.60880156  0.77769424     0.21000
N2719       N  0.11234280  0.63093371  0.79413635    -0.33100
C2720       C  0.12812167  0.62485309  0.80985848    -0.10600
C2721       C  0.14468274  0.61092982  0.80019050    -0.29400
N2722       N  0.15431505  0.60130319  0.71821495    -0.46000
C2723       C  0.14226628  0.61215770  0.70186982    -0.05300
C2724       C  0.12255496  0.62182344  0.71110347    -0.22700
H2725       H  0.09628868  0.63706532  0.74968925     0.19100
H2726       H  0.16750137  0.59142090  0.76225514     0.17900
H2727       H  0.16036687  0.60525013  0.80799782     0.14200
H2728       H  0.11096784  0.63340894  0.70274321     0.14100
H2729       H  0.09941020  0.64293375  0.79618272     0.32200
H2730       H  0.17059150  0.59433516  0.71649446     0.35000
C2731       C  0.23216568  0.62135938  0.88761289     0.20600
C2732       C  0.25461186  0.62624416  0.89432077    -0.39300
C2733       C  0.27195761  0.61645727  0.88113403     0.19600
C2734       C  0.26719956  0.60313865  0.86238346     0.22200
C2735       C  0.24476325  0.59801935  0.85582555    -0.39800
C2736       C  0.22742427  0.60746590  0.86927253     0.21000
N2737       N  0.21316288  0.63193554  0.89468365    -0.33100
C2738       C  0.19614469  0.62478137  0.88088908    -0.10600
C2739       C  0.20432917  0.60913632  0.86507733    -0.29400
N2740       N  0.28624826  0.59936063  0.85030228    -0.46000
C2741       C  0.30333894  0.61018316  0.86138652    -0.05300
C2742       C  0.29513250  0.62077158  0.88094153    -0.22700
H2743       H  0.25829255  0.63817807  0.90779203     0.19100
H2744       H  0.24107341  0.58876618  0.84038482     0.17900
H2745       H  0.19538603  0.60269558  0.85035920     0.14200
H2746       H  0.30424485  0.63249312  0.89177598     0.14100
H2747       H  0.21231073  0.64519055  0.90643255     0.32200
H2748       H  0.28721624  0.59168323  0.83433701     0.35000
C2749       C  0.11349108  0.75740584  0.80045660     0.20600
C2750       C  0.10712516  0.78000317  0.79609756    -0.39300
C2751       C  0.11139510  0.78792608  0.77398676     0.19600
C2752       C  0.12150199  0.77434346  0.75764783     0.22200
C2753       C  0.12760704  0.75171884  0.76191526    -0.39800
C2754       C  0.12315406  0.74377229  0.78391047     0.21000
N2755       N  0.11324557  0.74661689  0.82058559    -0.33100
C2756       C  0.12283371  0.72600669  0.81683116    -0.10600
C2757       C  0.12900034  0.72351031  0.79408045    -0.29400
N2758       N  0.12657904  0.78654059  0.73908394    -0.46000
C2759       C  0.11961157  0.80801204  0.74346062    -0.05300
C2760       C  0.10971684  0.80956257  0.76495788    -0.22700
H2761       H  0.10034542  0.79091897  0.80924541     0.19100
H2762       H  0.13622481  0.74141215  0.74935081     0.17900
H2763       H  0.13788936  0.70938010  0.78636592     0.14200
H2764       H  0.10420297  0.82480476  0.77361402     0.14100
H2765       H  0.10789343  0.75327858  0.83614025     0.32200
H2766       H  0.13558496  0.78094841  0.72482649     0.35000
C2767       C  0.33566481  0.86238960  0.98412169     0.20600
C2768       C  0.34840188  0.86625143  0.00393206    -0.39300
C2769       C  0.33687698  0.86269743  0.02457205     0.19600
C2770       C  0.31432437  0.85591456  0.02545539     0.22200
C2771       C  0.30152820  0.85213278  0.00564088    -0.39800
C2772       C  0.31311472  0.85557604  0.98498974     0.21000
N2773       N  0.34265591  0.86482650  0.96244248    -0.33100
C2774       C  0.32443606  0.85952102  0.94934945    -0.10600
C2775       C  0.30570374  0.85364009  0.96284675    -0.29400
N2776       N  0.30723228  0.85411904  0.04715588    -0.46000
C2777       C  0.32539367  0.85983781  0.06021273    -0.05300
C2778       C  0.34419609  0.86524899  0.04669027    -0.22700
H2779       H  0.36598889  0.87172619  0.00332481     0.19100
H2780       H  0.28383799  0.84698142  0.00625078     0.17900
H2781       H  0.28881496  0.84893149  0.95719783     0.14200
H2782       H  0.36086453  0.87071273  0.05229195     0.14100
H2783       H  0.35873641  0.87006171  0.95690514     0.32200
H2784       H  0.29093740  0.84963714  0.05273274     0.35000
C2785       C  0.22088084  0.74199408  0.88868868     0.20600
C2786       C  0.24351119  0.74654573  0.88267539    -0.39300
C2787       C  0.25074970  0.76892825  0.88586229     0.19600
C2788       C  0.23650265  0.78561095  0.89435874     0.22200
C2789       C  0.21383295  0.78099773  0.90063162    -0.39800
C2790       C  0.20657155  0.75846999  0.89752204     0.21000
N2791       N  0.20932650  0.72288284  0.88437811    -0.33100
C2792       C  0.18749522  0.72701198  0.89047291    -0.10600
C2793       C  0.18506471  0.74894768  0.89910579    -0.29400
N2794       N  0.24681625  0.80598188  0.89349471    -0.46000
C2795       C  0.26767688  0.80216209  0.88430456    -0.05300
C2796       C  0.27083093  0.77921733  0.87956145    -0.22700
H2797       H  0.25433322  0.73384082  0.87493482     0.19100
H2798       H  0.20239028  0.79419705  0.90639992     0.17900
H2799       H  0.16937427  0.75749071  0.90358565     0.14200
H2800       H  0.28531358  0.77135580  0.87132921     0.14100
H2801       H  0.21556430  0.70840956  0.87622399     0.32200
H2802       H  0.23971876  0.82164101  0.89786980     0.35000
C2803       C  0.23827613  0.88843546  0.80095174     0.20600
C2804       C  0.21549468  0.89300502  0.79529588    -0.39300
C2805       C  0.20931836  0.88860105  0.77267472     0.19600
C2806       C  0.22478600  0.88062941  0.75678714     0.22200
C2807       C  0.24753906  0.87617434  0.76239424    -0.39800
C2808       C  0.25357346  0.88013163  0.78506388     0.21000
N2809       N  0.24738508  0.88783566  0.82192573    -0.33100
C2810       C  0.26834667  0.87858303  0.81933901    -0.10600
C2811       C  0.27287081  0.87376137  0.79661705    -0.29400
N2812       N  0.21415540  0.87475420  0.73748012    -0.46000
C2813       C  0.19168989  0.87847072  0.74120489    -0.05300
C2814       C  0.18804126  0.88754600  0.76281100    -0.22700
H2815       H  0.20309773  0.89799432  0.80796636     0.19100
H2816       H  0.25923026  0.86850930  0.75041453     0.17900
H2817       H  0.28752983  0.86494013  0.78978295     0.14200
H2818       H  0.17184373  0.89092516  0.77093063     0.14100
H2819       H  0.23908602  0.89137208  0.83722619     0.32200
H2820       H  0.22151665  0.86690281  0.72335997     0.35000
C2821       C  0.38005231  0.76047168  0.86695749     0.20600
C2822       C  0.38993366  0.74260429  0.85460127    -0.39300
C2823       C  0.38447755  0.72058035  0.86198084     0.19600
C2824       C  0.36978001  0.71661248  0.87996376     0.22200
C2825       C  0.36006979  0.73450956  0.89247928    -0.39800
C2826       C  0.36598644  0.75657808  0.88544815     0.21000
N2827       N  0.38011360  0.78263950  0.86142659    -0.33100
C2828       C  0.36628132  0.79309129  0.87663489    -0.10600
C2829       C  0.35731707  0.77739081  0.89203580    -0.29400
N2830       N  0.36447035  0.69438831  0.88126385    -0.46000
C2831       C  0.37613513  0.68410738  0.86423561    -0.05300
C2832       C  0.38890846  0.69988670  0.85196268    -0.22700
H2833       H  0.40011602  0.74561616  0.83954827     0.19100
H2834       H  0.34781755  0.73149373  0.90590667     0.17900
H2835       H  0.34413073  0.78038517  0.90454787     0.14200
H2836       H  0.39806824  0.69697210  0.83625735     0.14100
H2837       H  0.38760923  0.78995270  0.84706434     0.32200
H2838       H  0.35230324  0.68694887  0.89189222     0.35000
C2839       C  0.36449540  0.87838665  0.77224166     0.20600
C2840       C  0.35608532  0.88330971  0.75051020    -0.39300
C2841       C  0.36809831  0.87385823  0.73227003     0.19600
C2842       C  0.38724498  0.86052231  0.73531662     0.22200
C2843       C  0.39562153  0.85544499  0.75719810    -0.39800
C2844       C  0.38349319  0.86489451  0.77558777     0.21000
N2845       N  0.35356683  0.88193415  0.79192226    -0.33100
C2846       C  0.36518377  0.87036460  0.80809082    -0.10600
C2847       C  0.38434993  0.85988066  0.79863897    -0.29400
N2848       N  0.39344685  0.85085483  0.71547316    -0.46000
C2849       C  0.37791563  0.85780010  0.69985503    -0.05300
C2850       C  0.36195597  0.87223788  0.70976398    -0.22700
H2851       H  0.34024167  0.89237979  0.74807077     0.19100
H2852       H  0.40950464  0.84364166  0.75976368     0.17900
H2853       H  0.39529600  0.84752809  0.80675918     0.14200
H2854       H  0.34649186  0.87864116  0.70208696     0.14100
H2855       H  0.33753913  0.88942937  0.79377130     0.32200
H2856       H  0.40585950  0.83835050  0.71324563     0.35000
C2857       C  0.37663699  0.16155993  0.47789935     0.20600
C2858       C  0.38263591  0.14909687  0.49746974    -0.39300
C2859       C  0.37763139  0.15944292  0.51846912     0.19600
C2860       C  0.36750883  0.18060873  0.51976664     0.22200
C2861       C  0.36152984  0.19303344  0.50026469    -0.39800
C2862       C  0.36648505  0.18270057  0.47934132     0.21000
N2863       N  0.38027844  0.15589462  0.45598854    -0.33100
C2864       C  0.37253501  0.17362115  0.44337505    -0.10600
C2865       C  0.36370255  0.19059953  0.45741730    -0.29400
N2866       N  0.36506979  0.18706329  0.54154131    -0.46000
C2867       C  0.37362119  0.16994608  0.55441553    -0.05300
C2868       C  0.38160393  0.15233504  0.54058911    -0.22700
H2869       H  0.39084920  0.13268512  0.49642272     0.19100
H2870       H  0.35385931  0.20970704  0.50131295     0.17900
H2871       H  0.35674866  0.20683056  0.45229005     0.14200
H2872       H  0.38963483  0.13669496  0.54596529     0.14100
H2873       H  0.38814650  0.14116285  0.45000707     0.32200
H2874       H  0.35821272  0.20237741  0.54730379     0.35000
C2875       C  0.16428645  0.47094235  0.62802010     0.20600
C2876       C  0.15056032  0.49060402  0.62961899    -0.39300
C2877       C  0.16217452  0.51162773  0.62889287     0.19600
C2878       C  0.18557951  0.51278480  0.62642336     0.22200
C2879       C  0.19923038  0.49324986  0.62514516    -0.39800
C2880       C  0.18772625  0.47238306  0.62618998     0.21000
N2881       N  0.15759502  0.44896133  0.62802875    -0.33100
C2882       C  0.17698787  0.43638521  0.62653614    -0.10600
C2883       C  0.19606712  0.45049634  0.62542736    -0.29400
N2884       N  0.19261663  0.53449095  0.62546118    -0.46000
C2885       C  0.17374033  0.54759210  0.62758450    -0.05300
C2886       C  0.15431666  0.53390105  0.62991157    -0.22700
H2887       H  0.13222453  0.48961301  0.63123881     0.19100
H2888       H  0.21755632  0.49423691  0.62339257     0.17900
H2889       H  0.21371101  0.44539999  0.62390926     0.14200
H2890       H  0.13684121  0.53946217  0.63167620     0.14100
H2891       H  0.14091534  0.44288393  0.62913163     0.32200
H2892       H  0.20939542  0.54009598  0.62354895     0.35000
C2893       C  0.16405982  0.36112239  0.51916577     0.20600
C2894       C  0.15286278  0.35421110  0.49908265    -0.39300
C2895       C  0.16352612  0.36030328  0.47839364     0.19600
C2896       C  0.18381416  0.37224417  0.47785073     0.22200
C2897       C  0.19497796  0.37904789  0.49781839    -0.39800
C2898       C  0.18432683  0.37306865  0.51837473     0.21000
N2899       N  0.15756787  0.35762530  0.54098590    -0.33100
C2900       C  0.17389015  0.36742143  0.55414533    -0.10600
C2901       C  0.19078667  0.37718323  0.54051108    -0.29400
N2902       N  0.19045355  0.37618791  0.45628413    -0.46000
C2903       C  0.17432216  0.36682927  0.44270967    -0.05300
C2904       C  0.15722922  0.35667176  0.45594259    -0.22700
H2905       H  0.13698090  0.34488732  0.49951636     0.19100
H2906       H  0.21082433  0.38843599  0.49738432     0.17900
H2907       H  0.20590985  0.38607588  0.54608714     0.14200
H2908       H  0.14219442  0.34790979  0.44994943     0.14100
H2909       H  0.14305638  0.34899081  0.54656742     0.32200
H2910       H  0.20508588  0.38487609  0.45110371     0.35000
C2911       C  0.28082436  0.24335382  0.61635940     0.20600
C2912       C  0.25796554  0.24896477  0.62039975    -0.39300
C2913       C  0.25164201  0.27129421  0.61498019     0.19600
C2914       C  0.26679160  0.28688619  0.60587265     0.22200
C2915       C  0.28972663  0.28125662  0.60187159    -0.39800
C2916       C  0.29614124  0.25895521  0.60757219     0.21000
N2917       N  0.29150309  0.22407119  0.62239524    -0.33100
C2918       C  0.31386633  0.22746929  0.61775011    -0.10600
C2919       C  0.31738630  0.24895526  0.60826883    -0.29400
N2920       N  0.25719839  0.30766594  0.60470254    -0.46000
C2921       C  0.23601049  0.30530815  0.61360789    -0.05300
C2922       C  0.23192457  0.28285136  0.61999228    -0.22700
H2923       H  0.24627238  0.23719950  0.62841781     0.19100
H2924       H  0.30196236  0.29368316  0.59594531     0.17900
H2925       H  0.33349701  0.25671937  0.60380099     0.14200
H2926       H  0.21717988  0.27629632  0.62891983     0.14100
H2927       H  0.28421655  0.20998040  0.63039746     0.32200
H2928       H  0.26525836  0.32283285  0.60018653     0.35000
C2929       C  0.37616485  0.46856963  0.83614585     0.20600
C2930       C  0.37372334  0.48805423  0.84977270    -0.39300
C2931       C  0.37527816  0.50899417  0.83831278     0.19600
C2932       C  0.37930731  0.51027547  0.81516682     0.22200
C2933       C  0.38148407  0.49090244  0.80157317    -0.39800
C2934       C  0.37957891  0.47009358  0.81291913     0.21000
N2935       N  0.37502868  0.44665593  0.84269372    -0.33100
C2936       C  0.37725489  0.43430866  0.82336336    -0.10600
C2937       C  0.38018943  0.44835086  0.80451508    -0.29400
N2938       N  0.38054587  0.53195417  0.80830399    -0.46000
C2939       C  0.37705860  0.54475827  0.82708220    -0.05300
C2940       C  0.37357477  0.53106626  0.84619657    -0.22700
H2941       H  0.37071280  0.48699215  0.86788583     0.19100
H2942       H  0.38430279  0.49196302  0.78342506     0.17900
H2943       H  0.38242676  0.44328944  0.78698089     0.14200
H2944       H  0.37056476  0.53651190  0.86349336     0.14100
H2945       H  0.37236950  0.44049647  0.85913281     0.32200
H2946       H  0.38348910  0.53771056  0.79176087     0.35000
C2947       C  0.28088822  0.37261009  0.74875896     0.20600
C2948       C  0.25771584  0.36872631  0.74420262    -0.39300
C2949       C  0.25104146  0.37127688  0.72143398     0.19600
C2950       C  0.26630033  0.37734825  0.70453776     0.22200
C2951       C  0.28944916  0.38127762  0.70910679    -0.39800
C2952       C  0.29614017  0.37864709  0.73183963     0.21000
N2953       N  0.29186586  0.36885923  0.76843292    -0.33100
C2954       C  0.31430022  0.37221654  0.76398020    -0.10600
C2955       C  0.31759581  0.37870091  0.74139881    -0.29400
N2956       N  0.25620355  0.37684640  0.68405761    -0.46000
C2957       C  0.23438650  0.37021558  0.68781163    -0.05300
C2958       C  0.23047701  0.36674471  0.71098641    -0.22700
H2959       H  0.24596793  0.36312346  0.75724737     0.19100
H2960       H  0.30156285  0.38510413  0.69576007     0.17900
H2961       H  0.33365156  0.38131725  0.73271928     0.14200
H2962       H  0.21504787  0.36055481  0.71896001     0.14100
H2963       H  0.28469211  0.36292416  0.78357275     0.32200
H2964       H  0.26400782  0.37972399  0.66835433     0.35000
C2965       C  0.38733087  0.27319985  0.74637235     0.20600
C2966       C  0.38045723  0.25129978  0.74028480    -0.39300
C2967       C  0.38666176  0.24426649  0.71846930     0.19600
C2968       C  0.39894465  0.25788983  0.70367739     0.22200
C2969       C  0.40599960  0.27989778  0.70988182    -0.39800
C2970       C  0.39974496  0.28702053  0.73186450     0.21000
N2971       N  0.38068396  0.28469659  0.76484051    -0.33100
C2972       C  0.38875285  0.30606677  0.76225922    -0.10600
C2973       C  0.40115389  0.30816464  0.74208525    -0.29400
N2974       N  0.40015330  0.24817594  0.68295350    -0.46000
C2975       C  0.38820481  0.22851390  0.68468281    -0.05300
C2976       C  0.37980332  0.22545494  0.70660542    -0.22700
H2977       H  0.36977785  0.24101653  0.75122883     0.19100
H2978       H  0.41455240  0.29110344  0.69803657     0.17900
H2979       H  0.40816680  0.32355323  0.73483473     0.14200
H2980       H  0.36859086  0.21209741  0.71254906     0.14100
H2981       H  0.36993005  0.27879341  0.77772292     0.32200
H2982       H  0.40693169  0.25533385  0.66817242     0.35000
C2983       C  0.13673642  0.30561642  0.97990155     0.20600
C2984       C  0.14323145  0.29409395  0.99966294    -0.39300
C2985       C  0.13751312  0.30470611  0.02012486     0.19600
C2986       C  0.12607489  0.32523221  0.02097094     0.22200
C2987       C  0.11946300  0.33678812  0.00109577    -0.39800
C2988       C  0.12533990  0.32618154  0.98049158     0.21000
N2989       N  0.14001857  0.29877018  0.95844513    -0.33100
C2990       C  0.13074808  0.31503009  0.94506948    -0.10600
C2991       C  0.12140460  0.33249564  0.95818331    -0.29400
N2992       N  0.12236776  0.33142882  0.04268546    -0.46000
C2993       C  0.13149232  0.31463221  0.05559660    -0.05300
C2994       C  0.14110258  0.29774042  0.04209717    -0.22700
H2995       H  0.15201451  0.27794811  0.99913620     0.19100
H2996       H  0.11037122  0.35275946  0.00163313     0.17900
H2997       H  0.11254518  0.34746956  0.95223209     0.14200
H2998       H  0.14932116  0.28224791  0.04763858     0.14100
H2999       H  0.14787533  0.28374221  0.95321811     0.32200
H3000       H  0.11385176  0.34592501  0.04835451     0.35000
C3001       C  0.22941279  0.36766493  0.86457982     0.20600
C3002       C  0.24730723  0.37890313  0.85337298    -0.39300
C3003       C  0.26938543  0.37307885  0.86039791     0.19600
C3004       C  0.27334320  0.35683041  0.87694606     0.22200
C3005       C  0.25544676  0.34583149  0.88837928    -0.39800
C3006       C  0.23336218  0.35207381  0.88175225     0.21000
N3007       N  0.20726376  0.36773548  0.85876859    -0.33100
C3008       C  0.19698447  0.35238118  0.87256191    -0.10600
C3009       C  0.21266749  0.34243193  0.88727137    -0.29400
N3010       N  0.29558206  0.35143503  0.87770206    -0.46000
C3011       C  0.30591031  0.36454711  0.86179397    -0.05300
C3012       C  0.29015815  0.37842500  0.85081009    -0.22700
H3013       H  0.24430535  0.39030010  0.83925200     0.19100
H3014       H  0.25849432  0.33238515  0.90055292     0.17900
H3015       H  0.20977582  0.32815777  0.89852116     0.14200
H3016       H  0.29309004  0.38882791  0.83591100     0.14100
H3017       H  0.19991745  0.37631617  0.84507688     0.32200
H3018       H  0.30297228  0.33825201  0.88701208     0.35000
C3019       C  0.11901548  0.35259439  0.72589243     0.20600
C3020       C  0.10933325  0.33914315  0.74304485    -0.39300
C3021       C  0.11356940  0.34609620  0.76540021     0.19600
C3022       C  0.12672343  0.36491704  0.77048613     0.22200
C3023       C  0.13650049  0.37839304  0.75323463    -0.39800
C3024       C  0.13196324  0.37161979  0.73073340     0.21000
N3025       N  0.12015178  0.34757113  0.70366529    -0.33100
C3026       C  0.13377710  0.36348600  0.69402458    -0.10600
C3027       C  0.14132121  0.37895132  0.71037418    -0.29400
N3028       N  0.13119351  0.36569929  0.79296598    -0.46000
C3029       C  0.12108542  0.34705775  0.80209145    -0.05300
C3030       C  0.10969038  0.33469562  0.78540824    -0.22700
H3031       H  0.10037787  0.32352429  0.73928208     0.19100
H3032       H  0.14792466  0.39229586  0.75704983     0.17900
H3033       H  0.15415797  0.39196989  0.70818387     0.14200
H3034       H  0.10204313  0.31805410  0.78724993     0.14100
H3035       H  0.11377364  0.33296889  0.69586607     0.32200
H3036       H  0.14259509  0.37662191  0.80107366     0.35000
C3037       C  0.32097291  0.12693450  0.97896185     0.20600
C3038       C  0.30965731  0.13438202  0.99855643    -0.39300
C3039       C  0.32026593  0.12912224  0.01918867     0.19600
C3040       C  0.34072479  0.11749245  0.02027081     0.22200
C3041       C  0.35219446  0.11022742  0.00060554    -0.39800
C3042       C  0.34147386  0.11536906  0.97991146     0.21000
N3043       N  0.31362114  0.12862044  0.95745676    -0.33100
C3044       C  0.32952812  0.11811564  0.94451783    -0.10600
C3045       C  0.34725801  0.10970145  0.95788973    -0.29400
N3046       N  0.34622726  0.11296567  0.04198139    -0.46000
C3047       C  0.32897634  0.12151435  0.05471048    -0.05300
C3048       C  0.31263474  0.13196733  0.04110392    -0.22700
H3049       H  0.29334416  0.14289957  0.99781977     0.19100
H3050       H  0.36787248  0.10060302  0.00139071     0.17900
H3051       H  0.36201977  0.10020957  0.95231718     0.14200
H3052       H  0.29671571  0.13954088  0.04645758     0.14100
H3053       H  0.29851204  0.13617978  0.95194623     0.32200
H3054       H  0.36022289  0.10363914  0.04769966     0.35000
C3055       C  0.34220137  0.96779472  0.87615392     0.20600
C3056       C  0.35405404  0.98739619  0.86900294    -0.39300
C3057       C  0.34386509  0.00836372  0.87453443     0.19600
C3058       C  0.32350659  0.00956430  0.88634139     0.22200
C3059       C  0.31175262  0.99006842  0.89351902    -0.39800
C3060       C  0.32184816  0.96923195  0.88793482     0.21000
N3061       N  0.34787664  0.94586083  0.87262509    -0.33100
C3062       C  0.33096398  0.93331899  0.88224080    -0.10600
C3063       C  0.31447052  0.94737834  0.89192234    -0.29400
N3064       N  0.31688862  0.03124720  0.88888257    -0.46000
C3065       C  0.33297158  0.04420487  0.87854183    -0.05300
C3066       C  0.35023756  0.03051288  0.86950121    -0.22700
H3067       H  0.36984817  0.98639679  0.85955727     0.19100
H3068       H  0.29569762  0.99105356  0.90252655     0.17900
H3069       H  0.29898379  0.94227289  0.90052937     0.14200
H3070       H  0.36514120  0.03597700  0.86013452     0.14100
H3071       H  0.36219505  0.93981032  0.86400180     0.32200
H3072       H  0.30204070  0.03688084  0.89688491     0.35000
C3073       C  0.25274986  0.20858100  0.88122381     0.20600
C3074       C  0.24779695  0.23176963  0.87868635    -0.39300
C3075       C  0.22478974  0.23780170  0.88108419     0.19600
C3076       C  0.20800699  0.22193940  0.88574853     0.22200
C3077       C  0.21295397  0.19875504  0.88830138    -0.39800
C3078       C  0.23594982  0.19273102  0.88588008     0.21000
N3079       N  0.27292324  0.19831877  0.87781163    -0.33100
C3080       C  0.26892407  0.17576856  0.88020169    -0.10600
C3081       C  0.24609511  0.17164552  0.88545331    -0.29400
N3082       N  0.18730939  0.23167996  0.88549126    -0.46000
C3083       C  0.19086111  0.25386362  0.88039409    -0.05300
C3084       C  0.21406449  0.25836215  0.87767840    -0.22700
H3085       H  0.26077514  0.24408097  0.87429731     0.19100
H3086       H  0.19975722  0.18622178  0.89113665     0.17900
H3087       H  0.23777433  0.15533817  0.88729951     0.14200
H3088       H  0.22190495  0.27424594  0.87268244     0.14100
H3089       H  0.28821289  0.20608407  0.87307192     0.32200
H3090       H  0.17164098  0.22348648  0.88743513     0.35000
C3091       C  0.38772391  0.25635534  0.86061962     0.20600
C3092       C  0.39502692  0.23469136  0.85397535    -0.39300
C3093       C  0.38547911  0.21638187  0.86585331     0.19600
C3094       C  0.36979432  0.21935698  0.88316993     0.22200
C3095       C  0.36242149  0.24113567  0.88981503    -0.39800
C3096       C  0.37206520  0.25955204  0.87792213     0.21000
N3097       N  0.39166061  0.27590675  0.84957056    -0.33100
C3098       C  0.37855032  0.29185383  0.85975237    -0.10600
C3099       C  0.36618545  0.28235753  0.87772393    -0.29400
N3100       N  0.36053808  0.19926424  0.88912348    -0.46000
C3101       C  0.37009314  0.18350276  0.87526439    -0.05300
C3102       C  0.38585905  0.19358048  0.86067953    -0.22700
H3103       H  0.40608463  0.23220683  0.83945805     0.19100
H3104       H  0.34902403  0.24348276  0.90224194     0.17900
H3105       H  0.35272408  0.29035863  0.88741162     0.14200
H3106       H  0.39428789  0.18573305  0.84632818     0.14100
H3107       H  0.40111979  0.27788117  0.83464462     0.32200
H3108       H  0.34661881  0.19682344  0.89993439     0.35000
C3109       C  0.37155844  0.10572322  0.76775157     0.20600
C3110       C  0.36612160  0.09887605  0.74552631    -0.39300
C3111       C  0.37597292  0.11164005  0.72788208     0.19600
C3112       C  0.38995735  0.13006116  0.73217534     0.22200
C3113       C  0.39572464  0.13665393  0.75437479    -0.39800
C3114       C  0.38613166  0.12370166  0.77198958     0.21000
N3115       N  0.36098048  0.09928125  0.78698744    -0.33100
C3116       C  0.36889549  0.11308581  0.80362722    -0.10600
C3117       C  0.38492519  0.12829852  0.79497088    -0.29400
N3118       N  0.39338876  0.14210209  0.71307632    -0.46000
C3119       C  0.38162340  0.13138419  0.69641403    -0.05300
C3120       C  0.37086891  0.11201353  0.70492536    -0.22700
H3121       H  0.35363855  0.08576205  0.74223704     0.19100
H3122       H  0.40544887  0.15190661  0.75771563     0.17900
H3123       H  0.39204788  0.14288901  0.80358985     0.14200
H3124       H  0.35843773  0.10157179  0.69628173     0.14100
H3125       H  0.34738503  0.08789615  0.78826872     0.32200
H3126       H  0.40132696  0.15794620  0.71191052     0.35000
C3127       C  0.13582822  0.01328382  0.69280545     0.20600
C3128       C  0.13962193  0.99364298  0.70566409    -0.39300
C3129       C  0.13556365  0.97309774  0.69447468     0.19600
C3130       C  0.12828761  0.97206232  0.67214194     0.22200
C3131       C  0.12439548  0.99180110  0.65925108    -0.39800
C3132       C  0.12845068  0.01246081  0.67049183     0.21000
N3133       N  0.13786302  0.03482080  0.69986342    -0.33100
C3134       C  0.13162471  0.04794237  0.68201851    -0.10600
C3135       C  0.12570868  0.03463202  0.66330630    -0.29400
N3136       N  0.12546527  0.95032451  0.66563005    -0.46000
C3137       C  0.13098156  0.93757423  0.68403045    -0.05300
C3138       C  0.13732903  0.95121019  0.70229449    -0.22700
H3139       H  0.14513276  0.99431592  0.72319013     0.19100
H3140       H  0.11845603  0.99113279  0.64187034     0.17900
H3141       H  0.11965195  0.04037933  0.64692546     0.14200
H3142       H  0.14240055  0.94580685  0.71912809     0.14100
H3143       H  0.14269138  0.04024905  0.71604582     0.32200
H3144       H  0.11998030  0.94454641  0.64978766     0.35000
C3145       C  0.11387521  0.22419603  0.63922182     0.20600
C3146       C  0.10701886  0.24653221  0.64405447    -0.39300
C3147       C  0.11727102  0.26368870  0.63098097     0.19600
C3148       C  0.13330946  0.25887256  0.61440109     0.22200
C3149       C  0.13963330  0.23647420  0.60909759    -0.39800
C3150       C  0.12928730  0.21931728  0.62208781     0.21000
N3151       N  0.11025221  0.20575678  0.65221496    -0.33100
C3152       C  0.12326737  0.18896886  0.64328429    -0.10600
C3153       C  0.13507885  0.19666012  0.62419746    -0.29400
N3154       N  0.14450964  0.27785641  0.60834294    -0.46000
C3155       C  0.13567221  0.29489446  0.62107823    -0.05300
C3156       C  0.11821670  0.28678694  0.63499742    -0.22700
H3157       H  0.09618894  0.25042283  0.65842941     0.19100
H3158       H  0.15326096  0.23281311  0.59725173     0.17900
H3159       H  0.14839747  0.18779896  0.61508004     0.14200
H3160       H  0.11009293  0.29577644  0.64884147     0.14100
H3161       H  0.10114759  0.20517657  0.66747107     0.32200
H3162       H  0.15915825  0.27868483  0.59827295     0.35000
C3163       C  0.23004817  0.12809827  0.62694643     0.20600
C3164       C  0.24746577  0.13902609  0.61472802    -0.39300
C3165       C  0.26967745  0.13121164  0.61881130     0.19600
C3166       C  0.27424039  0.11408737  0.63428095     0.22200
C3167       C  0.25676076  0.10284262  0.64616743    -0.39800
C3168       C  0.23450004  0.11036791  0.64175297     0.21000
N3169       N  0.20810616  0.13449707  0.62846308    -0.33100
C3170       C  0.19840867  0.12050730  0.64401469    -0.10600
C3171       C  0.21427281  0.10510589  0.65256018    -0.29400
N3172       N  0.29674476  0.11286869  0.63842534    -0.46000
C3173       C  0.30662490  0.12911485  0.62535402    -0.05300
C3174       C  0.29028526  0.14067834  0.61266549    -0.22700
H3175       H  0.24412759  0.15357666  0.60398690     0.19100
H3176       H  0.26034223  0.09020291  0.65903878     0.17900
H3177       H  0.21185624  0.09325531  0.66642954     0.14200
H3178       H  0.29281812  0.15601698  0.60282081     0.14100
H3179       H  0.20051529  0.14841994  0.62048920     0.32200
H3180       H  0.30463372  0.10320973  0.65105819     0.35000
C3181       C  0.09830093  0.19506032  0.76969453     0.20600
C3182       C  0.09234010  0.20089215  0.79214305    -0.39300
C3183       C  0.09941824  0.22253969  0.79945759     0.19600
C3184       C  0.11139912  0.23712276  0.78532443     0.22200
C3185       C  0.11686442  0.23155671  0.76294615    -0.39800
C3186       C  0.11001339  0.21006285  0.75578038     0.21000
N3187       N  0.09762351  0.17425996  0.76012399    -0.33100
C3188       C  0.10945365  0.17623713  0.74038651    -0.10600
C3189       C  0.11694186  0.19834986  0.73697225    -0.29400
N3190       N  0.11957064  0.25482181  0.79695259    -0.46000
C3191       C  0.11289983  0.25170578  0.81870767    -0.05300
C3192       C  0.09984487  0.23199228  0.82099826    -0.22700
H3193       H  0.08447231  0.18882213  0.80360604     0.19100
H3194       H  0.12748431  0.24240653  0.75250163     0.17900
H3195       H  0.12830516  0.20437594  0.72376430     0.14200
H3196       H  0.09358280  0.22447861  0.83659103     0.14100
H3197       H  0.09185252  0.15925905  0.76767608     0.32200
H3198       H  0.13036037  0.26752433  0.79075129     0.35000
C3199       C  0.22058793  0.10917918  0.75698381     0.20600
C3200       C  0.24367982  0.11255708  0.76158796    -0.39300
C3201       C  0.25077329  0.10641182  0.78338654     0.19600
C3202       C  0.23607466  0.09741934  0.79948520     0.22200
C3203       C  0.21281118  0.09417129  0.79489202    -0.39800
C3204       C  0.20564540  0.10044450  0.77299714     0.21000
N3205       N  0.20948760  0.11555525  0.73818267    -0.33100
C3206       C  0.18723444  0.11116271  0.74221267    -0.10600
C3207       C  0.18410103  0.10150795  0.76368525    -0.29400
N3208       N  0.24663346  0.09535199  0.81966957    -0.46000
C3209       C  0.26797835  0.10347011  0.81631130    -0.05300
C3210       C  0.27118527  0.11036223  0.79390794    -0.22700
H3211       H  0.25506978  0.12043996  0.74943121     0.19100
H3212       H  0.20100281  0.08820516  0.80771678     0.17900
H3213       H  0.16816392  0.09700642  0.77179200     0.14200
H3214       H  0.28584618  0.11902780  0.78683086     0.14100
H3215       H  0.21651840  0.12343981  0.72388683     0.32200
H3216       H  0.23919327  0.09083525  0.83516128     0.35000
C3217       C  0.52288021  0.15652135  0.62786815     0.20600
C3218       C  0.50293958  0.14500482  0.63465550    -0.39300
C3219       C  0.48220634  0.15488398  0.62773856     0.19600
C3220       C  0.48149911  0.17464728  0.61500938     0.22200
C3221       C  0.50133359  0.18604625  0.60817415    -0.39800
C3222       C  0.52193199  0.17625645  0.61512351     0.21000
N3223       N  0.54470607  0.15108891  0.63262550    -0.33100
C3224       C  0.55762114  0.16757580  0.62281859    -0.10600
C3225       C  0.54394818  0.18347808  0.61176507    -0.29400
N3226       N  0.45988607  0.18112372  0.61128337    -0.46000
C3227       C  0.44652673  0.16549810  0.62175740    -0.05300
C3228       C  0.45984556  0.14872533  0.63209799    -0.22700
H3229       H  0.50350326  0.12970464  0.64484026     0.19100
H3230       H  0.50076336  0.20163761  0.59843395     0.17900
H3231       H  0.54941347  0.19848727  0.60262383     0.14200
H3232       H  0.45397823  0.13433287  0.64194803     0.14100
H3233       H  0.55042821  0.13719607  0.64206693     0.32200
H3234       H  0.45455297  0.19558175  0.60247784     0.35000
C3235       C  0.62879756  0.15740396  0.52157376     0.20600
C3236       C  0.62225656  0.14585801  0.50167227    -0.39300
C3237       C  0.62919346  0.15591937  0.48107289     0.19600
C3238       C  0.64163039  0.17589453  0.48055274     0.22200
C3239       C  0.64810930  0.18735772  0.50029672    -0.39800
C3240       C  0.64119612  0.17738314  0.52071531     0.21000
N3241       N  0.62352278  0.15214545  0.54325347    -0.33100
C3242       C  0.63250622  0.16908383  0.55606258    -0.10600
C3243       C  0.64370966  0.18501034  0.54257039    -0.29400
N3244       N  0.64499816  0.18285846  0.45916452    -0.46000
C3245       C  0.63461478  0.16737339  0.44572876    -0.05300
C3246       C  0.62466908  0.15011688  0.45872586    -0.22700
H3247       H  0.61208518  0.13053546  0.50217131     0.19100
H3248       H  0.65736044  0.20325497  0.49976908     0.17900
H3249       H  0.65205339  0.20047001  0.54800402     0.14200
H3250       H  0.61455469  0.13598354  0.45272834     0.14100
H3251       H  0.61383390  0.13836696  0.54890290     0.32200
H3252       H  0.65319282  0.19777165  0.45404959     0.35000
C3253       C  0.83926217  0.47227177  0.62963143     0.20600
C3254       C  0.85203561  0.49227829  0.62632005    -0.39300
C3255       C  0.84026614  0.51285514  0.62976572     0.19600
C3256       C  0.81757283  0.51337583  0.63613041     0.22200
C3257       C  0.80488043  0.49346836  0.63953570    -0.39800
C3258       C  0.81658165  0.47301532  0.63601226     0.21000
N3259       N  0.84602357  0.45058848  0.62638536    -0.33100
C3260       C  0.82740974  0.43754283  0.63065785    -0.10600
C3261       C  0.80883869  0.45099654  0.63683630    -0.29400
N3262       N  0.81000135  0.53487361  0.63746664    -0.46000
C3263       C  0.82790690  0.54834571  0.63187251    -0.05300
C3264       C  0.84714933  0.53519778  0.62699845    -0.22700
H3265       H  0.86967283  0.49187215  0.62097522     0.19100
H3266       H  0.78702375  0.49387473  0.64412085     0.17900
H3267       H  0.79172269  0.44541163  0.64082883     0.14200
H3268       H  0.86373607  0.54115193  0.62159614     0.14100
H3269       H  0.86209100  0.44506371  0.62114300     0.32200
H3270       H  0.79345441  0.54004940  0.64144504     0.35000
C3271       C  0.82662138  0.37787102  0.52239853     0.20600
C3272       C  0.81727142  0.38690064  0.50247302    -0.39300
C3273       C  0.82721645  0.37963324  0.48212049     0.19600
C3274       C  0.84529265  0.36458456  0.48148545     0.22200
C3275       C  0.85486351  0.35563192  0.50156884    -0.39800
C3276       C  0.84476225  0.36287359  0.52208783     0.21000
N3277       N  0.81941988  0.38158229  0.54371889    -0.33100
C3278       C  0.83301793  0.36900779  0.55736748    -0.10600
C3279       C  0.84916394  0.35708892  0.54450744    -0.29400
N3280       N  0.85070817  0.35950613  0.45976950    -0.46000
C3281       C  0.83576195  0.37128772  0.44664877    -0.05300
C3282       C  0.82103334  0.38412734  0.46005939    -0.22700
H3283       H  0.80286597  0.39835522  0.50277811     0.19100
H3284       H  0.86876399  0.34357487  0.50123088     0.17900
H3285       H  0.86209411  0.34554654  0.55068449     0.14200
H3286       H  0.80710468  0.39475417  0.45441926     0.14100
H3287       H  0.80594765  0.39204498  0.54869150     0.32200
H3288       H  0.86321126  0.34816382  0.45425414     0.35000
C3289       C  0.72190890  0.24696395  0.61512701     0.20600
C3290       C  0.74454648  0.25263975  0.61989475    -0.39300
C3291       C  0.75083286  0.27506263  0.61511472     0.19600
C3292       C  0.73587956  0.29070427  0.60583306     0.22200
C3293       C  0.71313670  0.28498442  0.60099032    -0.39800
C3294       C  0.70671213  0.26254728  0.60615458     0.21000
N3295       N  0.71120651  0.22770021  0.62102622    -0.33100
C3296       C  0.68893217  0.23104870  0.61619549    -0.10600
C3297       C  0.68546451  0.25247996  0.60657707    -0.29400
N3298       N  0.74533105  0.31156347  0.60550743    -0.46000
C3299       C  0.76615672  0.30909678  0.61511951    -0.05300
C3300       C  0.77021925  0.28660279  0.62113136    -0.22700
H3301       H  0.75601598  0.24086822  0.62816422     0.19100
H3302       H  0.70099018  0.29745030  0.59502763     0.17900
H3303       H  0.66937552  0.26025269  0.60212502     0.14200
H3304       H  0.78470802  0.27995584  0.63034403     0.14100
H3305       H  0.71838006  0.21374135  0.62931992     0.32200
H3306       H  0.73738819  0.32677558  0.60098948     0.35000
C3307       C  0.63155818  0.47257122  0.81396958     0.20600
C3308       C  0.63229360  0.49251309  0.80088365    -0.39300
C3309       C  0.63143084  0.51298535  0.81301815     0.19600
C3310       C  0.63028339  0.51365912  0.83648393     0.22200
C3311       C  0.62931948  0.49360581  0.84961800    -0.39800
C3312       C  0.62987458  0.47301029  0.83740967     0.21000
N3313       N  0.63163461  0.45109724  0.80629053    -0.33100
C3314       C  0.62972714  0.43750474  0.82482934    -0.10600
C3315       C  0.62856110  0.45058547  0.84464551    -0.29400
N3316       N  0.62951386  0.53537207  0.84382457    -0.46000
C3317       C  0.62979292  0.54854044  0.82483940    -0.05300
C3318       C  0.63097223  0.53511245  0.80534620    -0.22700
H3319       H  0.63316610  0.49211014  0.78251947     0.19100
H3320       H  0.62795973  0.49400823  0.86794836     0.17900
H3321       H  0.62683649  0.44453707  0.86192926     0.14200
H3322       H  0.63129420  0.54081014  0.78785766     0.14100
H3323       H  0.63249014  0.44599263  0.78931987     0.32200
H3324       H  0.62825436  0.54087783  0.86063755     0.35000
C3325       C  0.52209684  0.36335354  0.83745676     0.20600
C3326       C  0.50241891  0.35476479  0.84816397    -0.39300
C3327       C  0.48153677  0.36153435  0.83860355     0.19600
C3328       C  0.48051645  0.37578922  0.81991308     0.22200
C3329       C  0.50006925  0.38439604  0.80933262    -0.39800
C3330       C  0.52080946  0.37756755  0.81876020     0.21000
N3331       N  0.54400411  0.35890770  0.84257624    -0.33100
C3332       C  0.55659667  0.37028189  0.82687143    -0.10600
C3333       C  0.54269060  0.38214113  0.81182899    -0.29400
N3334       N  0.45890870  0.37911985  0.81346313    -0.46000
C3335       C  0.44586639  0.36691033  0.82802653    -0.05300
C3336       C  0.45933555  0.35576129  0.84411449    -0.22700
H3337       H  0.50330593  0.34336490  0.86257047     0.19100
H3338       H  0.49919484  0.39527357  0.79452252     0.17900
H3339       H  0.54790415  0.39242204  0.79747651     0.14200
H3340       H  0.45370042  0.34460397  0.85762459     0.14100
H3341       H  0.54999248  0.34843129  0.85559045     0.32200
H3342       H  0.45338197  0.38892241  0.79973231     0.35000
C3343       C  0.61615289  0.24967977  0.71504010     0.20600
C3344       C  0.62276151  0.25523746  0.73710277    -0.39300
C3345       C  0.61657039  0.27684378  0.74451123     0.19600
C3346       C  0.60459538  0.29200481  0.73107920     0.22200
C3347       C  0.59800862  0.28641727  0.70874228    -0.39800
C3348       C  0.60423424  0.26455616  0.70123447     0.21000
N3349       N  0.62233478  0.23112313  0.70356246    -0.33100
C3350       C  0.61450491  0.23392436  0.68217134    -0.10600
C3351       C  0.60281479  0.25449305  0.67997310    -0.29400
N3352       N  0.60312567  0.31237660  0.74145364    -0.46000
C3353       C  0.61466544  0.30997936  0.76127824    -0.05300
C3354       C  0.62301928  0.28804457  0.76379653    -0.22700
H3355       H  0.63306339  0.24395264  0.74735390     0.19100
H3356       H  0.58965520  0.29852545  0.69770814     0.17900
H3357       H  0.59609486  0.26193269  0.66456017     0.14200
H3358       H  0.63396391  0.28169224  0.77716042     0.14100
H3359       H  0.63256944  0.21790400  0.70955939     0.32200
H3360       H  0.59649305  0.32736876  0.73466740     0.35000
C3361       C  0.70734828  0.38275724  0.73498198     0.20600
C3362       C  0.71238182  0.38624523  0.71193832    -0.39300
C3363       C  0.73533183  0.38386019  0.70580324     0.19600
C3364       C  0.75206454  0.37851276  0.72146942     0.22200
C3365       C  0.74705033  0.37518028  0.74458247    -0.39800
C3366       C  0.72403470  0.37739775  0.75069126     0.21000
N3367       N  0.68656767  0.38149963  0.74446231    -0.33100
C3368       C  0.68994161  0.37500547  0.76628981    -0.10600
C3369       C  0.71312932  0.37251788  0.77090561    -0.29400
N3370       N  0.77195924  0.37437182  0.71092486    -0.46000
C3371       C  0.76777368  0.37678533  0.68839248    -0.05300
C3372       C  0.74521535  0.38309980  0.68457644    -0.22700
H3373       H  0.69919748  0.38929563  0.69947357     0.19100
H3374       H  0.75990381  0.36993275  0.75665627     0.17900
H3375       H  0.72083741  0.36647527  0.78647266     0.14200
H3376       H  0.73671385  0.38490293  0.66837241     0.14100
H3377       H  0.67097000  0.38350739  0.73618797     0.32200
H3378       H  0.78700413  0.36866395  0.71846562     0.35000
C3379       C  0.02362136  0.11768989  0.66497402     0.20600
C3380       C  0.00384359  0.11871871  0.65149840    -0.39300
C3381       C  0.98304537  0.11783978  0.66341906     0.19600
C3382       C  0.98224885  0.11635369  0.68688525     0.22200
C3383       C  0.00185744  0.11510221  0.70023234    -0.39800
C3384       C  0.02245160  0.11567251  0.68838252     0.21000
N3385       N  0.04550835  0.11807364  0.65803303    -0.33100
C3386       C  0.05807827  0.11591402  0.67724725    -0.10600
C3387       C  0.04428532  0.11436236  0.69641725    -0.29400
N3388       N  0.96072428  0.11611916  0.69433501    -0.46000
C3389       C  0.94745624  0.11725062  0.67560176    -0.05300
C3390       C  0.96071303  0.11825002  0.65586229    -0.22700
H3391       H  0.00458851  0.12002231  0.63317257     0.19100
H3392       H  0.00111795  0.11368188  0.71855649     0.17900
H3393       H  0.04958142  0.11262602  0.71394270     0.14200
H3394       H  0.95484130  0.11935362  0.63847989     0.14100
H3395       H  0.05149657  0.11933876  0.64136204     0.32200
H3396       H  0.95536891  0.11507189  0.71124108     0.35000
C3397       C  0.87362267  0.01343839  0.68646313     0.20600
C3398       C  0.87180770  0.99386211  0.69998013    -0.39300
C3399       C  0.87373159  0.97308167  0.68852118     0.19600
C3400       C  0.87746882  0.97179208  0.66534922     0.22200
C3401       C  0.87909120  0.99146489  0.65173295    -0.39800
C3402       C  0.87683612  0.01236377  0.66319478     0.21000
N3403       N  0.87294960  0.03511457  0.69352542    -0.33100
C3404       C  0.87544213  0.04817266  0.67469833    -0.10600
C3405       C  0.87777989  0.03458443  0.65533700    -0.29400
N3406       N  0.87927342  0.94991624  0.65875411    -0.46000
C3407       C  0.87646637  0.93723870  0.67787190    -0.05300
C3408       C  0.87292223  0.95116465  0.69672550    -0.22700
H3409       H  0.86922891  0.99475505  0.71816818     0.19100
H3410       H  0.88199658  0.99057081  0.63359726     0.17900
H3411       H  0.88055010  0.04018128  0.63803352     0.14200
H3412       H  0.87043147  0.94594007  0.71419165     0.14100
H3413       H  0.87101698  0.04073465  0.71024374     0.32200
H3414       H  0.88228676  0.94398313  0.64230982     0.35000
C3415       C  0.73159340  0.12457716  0.62074296     0.20600
C3416       C  0.75374373  0.12820255  0.61222275    -0.39300
C3417       C  0.77167800  0.11988980  0.62572669     0.19600
C3418       C  0.76767062  0.10892865  0.64617560     0.22200
C3419       C  0.74569301  0.10532501  0.65463502    -0.39800
C3420       C  0.72791020  0.11353517  0.64120290     0.21000
N3421       N  0.71208418  0.13401389  0.61323758    -0.33100
C3422       C  0.69613990  0.12920137  0.62926589    -0.10600
C3423       C  0.70537962  0.11628539  0.64676412    -0.29400
N3424       N  0.78710436  0.10604402  0.65766794    -0.46000
C3425       C  0.80376862  0.11529293  0.64471908    -0.05300
C3426       C  0.79492240  0.12380110  0.62440317    -0.22700
H3427       H  0.75684059  0.13817551  0.59707169     0.19100
H3428       H  0.74273596  0.09819580  0.67134534     0.17900
H3429       H  0.69733122  0.11190006  0.66274340     0.14200
H3430       H  0.80374982  0.13402418  0.61188375     0.14100
H3431       H  0.71035250  0.14521865  0.59957727     0.32200
H3432       H  0.78864119  0.10015620  0.67435350     0.35000
C3433       C  0.88384143  0.22251338  0.63083376     0.20600
C3434       C  0.89227393  0.24426780  0.63602173    -0.39300
C3435       C  0.87989769  0.26268147  0.62717323     0.19600
C3436       C  0.86052143  0.25953198  0.61418340     0.22200
C3437       C  0.85200945  0.23786318  0.60912868    -0.39800
C3438       C  0.86434368  0.21953112  0.61799061     0.21000
N3439       N  0.89038307  0.20268021  0.64015866    -0.33100
C3440       C  0.87472667  0.18708285  0.63361282    -0.10600
C3441       C  0.85832034  0.19697262  0.61964306    -0.29400
N3442       N  0.84963425  0.27929391  0.61113064    -0.46000
C3443       C  0.86183819  0.29521676  0.62242138    -0.05300
C3444       C  0.88113690  0.28559219  0.63232724    -0.22700
H3445       H  0.90645628  0.24669426  0.64748581     0.19100
H3446       H  0.83594785  0.23551265  0.60043237     0.17900
H3447       H  0.84266508  0.18928276  0.61372875     0.14200
H3448       H  0.89260254  0.29356483  0.64428641     0.14100
H3449       H  0.90306356  0.20045190  0.65238724     0.32200
H3450       H  0.83350120  0.28140262  0.60395564     0.35000
C3451       C  0.68701909  0.11595613  0.98175093     0.20600
C3452       C  0.69953491  0.11328381  0.00183344    -0.39300
C3453       C  0.68698233  0.11425060  0.02208067     0.19600
C3454       C  0.66371702  0.11796141  0.02249353     0.22200
C3455       C  0.65108117  0.12041055  0.00228686    -0.39800
C3456       C  0.66365508  0.11908415  0.98189396     0.21000
N3457       N  0.69509118  0.11534866  0.96038220    -0.33100
C3458       C  0.67677382  0.11774474  0.94661518    -0.10600
C3459       C  0.65680106  0.12009621  0.95941114    -0.29400
N3460       N  0.65596862  0.11828957  0.04411685    -0.46000
C3461       C  0.67447305  0.11439704  0.05741491    -0.05300
C3462       C  0.69403563  0.11181640  0.04420602    -0.22700
H3463       H  0.71774681  0.11045148  0.00170062     0.19100
H3464       H  0.63282753  0.12294837  0.00241378     0.17900
H3465       H  0.63962636  0.12220394  0.95310980     0.14200
H3466       H  0.71121750  0.10869618  0.05006354     0.14100
H3467       H  0.71201827  0.11295889  0.95544546     0.32200
H3468       H  0.63917903  0.12073252  0.04946567     0.35000
C3469       C  0.68513461  0.01304578  0.87156132     0.20600
C3470       C  0.69861246  0.99349484  0.87025860    -0.39300
C3471       C  0.68684034  0.97283898  0.87053643     0.19600
C3472       C  0.66336328  0.97155145  0.87218796     0.22200
C3473       C  0.64975059  0.99125819  0.87312825    -0.39800
C3474       C  0.66159816  0.01209926  0.87265472     0.21000
N3475       N  0.69250955  0.03457986  0.87248589    -0.33100
C3476       C  0.67364733  0.04770531  0.87397358    -0.10600
C3477       C  0.65392874  0.03432966  0.87392382    -0.29400
N3478       N  0.65656352  0.94965428  0.87305768    -0.46000
C3479       C  0.67593363  0.93710129  0.87168410    -0.05300
C3480       C  0.69505895  0.95103150  0.87002791    -0.22700
H3481       H  0.71701263  0.99430481  0.86942424     0.19100
H3482       H  0.63138233  0.99043331  0.87444357     0.17900
H3483       H  0.63646815  0.04004586  0.87529983     0.14200
H3484       H  0.71272288  0.94585849  0.86906224     0.14100
H3485       H  0.70944079  0.04004118  0.87221932     0.32200
H3486       H  0.63988823  0.94364301  0.87453679     0.35000
C3487       C  0.62213348  0.12381339  0.77400857     0.20600
C3488       C  0.61143223  0.13744853  0.75767689    -0.39300
C3489       C  0.61705913  0.13292806  0.73498452     0.19600
C3490       C  0.63205105  0.11588057  0.72879547     0.22200
C3491       C  0.64302454  0.10237276  0.74518131    -0.39800
C3492       C  0.63759773  0.10711216  0.76797923     0.21000
N3493       N  0.62272333  0.12765722  0.79650696    -0.33100
C3494       C  0.63918583  0.11392937  0.80486528    -0.10600
C3495       C  0.64859027  0.10060133  0.78762678    -0.29400
N3496       N  0.63689555  0.11717062  0.70642134    -0.46000
C3497       C  0.62527624  0.13546361  0.69852290    -0.05300
C3498       C  0.61267420  0.14557333  0.71583862    -0.22700
H3499       H  0.60086463  0.15174570  0.76239402     0.19100
H3500       H  0.65615667  0.09031204  0.74061447     0.17900
H3501       H  0.66355527  0.08993652  0.78880884     0.14200
H3502       H  0.60338972  0.16142666  0.71499432     0.14100
H3503       H  0.61479951  0.14103764  0.80506549     0.32200
H3504       H  0.64918359  0.10778975  0.69766545     0.35000
C3505       C  0.61801847  0.21770906  0.86235549     0.20600
C3506       C  0.60874582  0.23464212  0.84845244    -0.39300
C3507       C  0.61196479  0.25703047  0.85574120     0.19600
C3508       C  0.62369350  0.26238859  0.87539719     0.22200
C3509       C  0.63292125  0.24532077  0.88945461    -0.39800
C3510       C  0.62952461  0.22275600  0.88222940     0.21000
N3511       N  0.62041267  0.19568819  0.85703078    -0.33100
C3512       C  0.63346278  0.18640137  0.87354811    -0.10600
C3513       C  0.63925815  0.20269392  0.88979081    -0.29400
N3514       N  0.62786363  0.28493640  0.87630312    -0.46000
C3515       C  0.61904976  0.29378294  0.85689146    -0.05300
C3516       C  0.60869159  0.27687895  0.84395603    -0.22700
H3517       H  0.60108442  0.23074351  0.83220100     0.19100
H3518       H  0.64336435  0.24935213  0.90403625     0.17900
H3519       H  0.65134488  0.20079536  0.90352370     0.14200
H3520       H  0.60227123  0.27847240  0.82679091     0.14100
H3521       H  0.61531718  0.18790673  0.84192528     0.32200
H3522       H  0.63839850  0.29325751  0.88790452     0.35000
C3523       C  0.76879762  0.10043254  0.79735626     0.20600
C3524       C  0.79063338  0.09255702  0.79115849    -0.39300
C3525       C  0.79918794  0.10068897  0.77026956     0.19600
C3526       C  0.78682434  0.11552695  0.75682202     0.22200
C3527       C  0.76515252  0.12321131  0.76287021    -0.39800
C3528       C  0.75673013  0.11519331  0.78357299     0.21000
N3529       N  0.75778310  0.09736054  0.81729864    -0.33100
C3530       C  0.73890166  0.11062878  0.81610036    -0.10600
C3531       C  0.73764666  0.12173806  0.79525122    -0.29400
N3532       N  0.79917401  0.12258937  0.73905544    -0.46000
C3533       C  0.81963064  0.11224205  0.74089031    -0.05300
C3534       C  0.82034977  0.09817717  0.76003702    -0.22700
H3535       H  0.80060036  0.08174674  0.80220313     0.19100
H3536       H  0.75597250  0.13548933  0.75269997     0.17900
H3537       H  0.72520321  0.13423731  0.78998430     0.14200
H3538       H  0.83478121  0.08867145  0.76636346     0.14100
H3539       H  0.76357284  0.08826363  0.83139113     0.32200
H3540       H  0.79425692  0.13444491  0.72678478     0.35000
C3541       C  0.87678152  0.30379282  0.02082225     0.20600
C3542       C  0.87799213  0.29118289  0.00074960    -0.39300
C3543       C  0.87680477  0.30371878  0.98061320     0.19600
C3544       C  0.87447842  0.32710078  0.98027556     0.22200
C3545       C  0.87368054  0.33984865  0.00052231    -0.39800
C3546       C  0.87497458  0.32723067  0.02084951     0.21000
N3547       N  0.87704374  0.29560115  0.04205454    -0.33100
C3548       C  0.87559759  0.31384750  0.05594536    -0.10600
C3549       C  0.87445261  0.33398708  0.04339026    -0.29400
N3550       N  0.87346442  0.33475781  0.95865983    -0.46000
C3551       C  0.87547704  0.31600866  0.94537204    -0.05300
C3552       C  0.87758444  0.29645196  0.95852309    -0.22700
H3553       H  0.87961028  0.27287306  0.00080731     0.19100
H3554       H  0.87205477  0.35815017  0.00046683     0.17900
H3555       H  0.87314584  0.35112789  0.04985534     0.14200
H3556       H  0.87950918  0.27914856  0.95264407     0.14100
H3557       H  0.87832905  0.27855325  0.04682169     0.32200
H3558       H  0.87196783  0.35160415  0.95330647     0.35000
C3559       C  0.98150785  0.30532665  0.88077212     0.20600
C3560       C  0.00125845  0.29293919  0.88574852    -0.39300
C3561       C  0.02189161  0.30450059  0.88274433     0.19600
C3562       C  0.02291463  0.32670409  0.87510069     0.22200
C3563       C  0.00302093  0.33931068  0.87047214    -0.39800
C3564       C  0.98222319  0.32776071  0.87376706     0.21000
N3565       N  0.95995350  0.29784162  0.88194558    -0.33100
C3566       C  0.94657534  0.31562582  0.87608364    -0.10600
C3567       C  0.95982228  0.33472673  0.87092321    -0.29400
N3568       N  0.04479021  0.33332444  0.87263098    -0.46000
C3569       C  0.05766004  0.31519624  0.87890959    -0.05300
C3570       C  0.04391717  0.29702405  0.88549898    -0.22700
H3571       H  0.00060678  0.27543443  0.89133847     0.19100
H3572       H  0.00368851  0.35671190  0.86457574     0.17900
H3573       H  0.95390131  0.35127301  0.86552932     0.14200
H3574       H  0.04933919  0.28032640  0.89096351     0.14100
H3575       H  0.95460560  0.28161197  0.88676996     0.32200
H3576       H  0.05059901  0.34907138  0.86684465     0.35000
C3577       C  0.78313992  0.23916279  0.88394493     0.20600
C3578       C  0.76017963  0.23521848  0.87864922    -0.39300
C3579       C  0.75187488  0.21352271  0.88391694     0.19600
C3580       C  0.76546911  0.19697502  0.89365684     0.22200
C3581       C  0.78838529  0.20104047  0.89925120    -0.39800
C3582       C  0.79668609  0.22282088  0.89410131     0.21000
N3583       N  0.79563052  0.25732663  0.87806659    -0.33100
C3584       C  0.81725358  0.25269559  0.88460434    -0.10600
C3585       C  0.81860850  0.23142962  0.89497216    -0.29400
N3586       N  0.75448691  0.17694870  0.89418937    -0.46000
C3587       C  0.73384467  0.18070990  0.88457592    -0.05300
C3588       C  0.73144402  0.20343828  0.87831297    -0.22700
H3589       H  0.74990004  0.24771131  0.86989221     0.19100
H3590       H  0.79927389  0.18783462  0.90598604     0.17900
H3591       H  0.83382886  0.22268281  0.90050517     0.14200
H3592       H  0.71747424  0.21106230  0.86906576     0.14100
H3593       H  0.79004179  0.27156165  0.86904969     0.32200
H3594       H  0.76122306  0.16135165  0.89931503     0.35000
C3595       C  0.89710976  0.22780584  0.79455259     0.20600
C3596       C  0.90096638  0.20489291  0.78928922    -0.39300
C3597       C  0.89728570  0.19873751  0.76656953     0.19600
C3598       C  0.89037916  0.21424841  0.75028555     0.22200
C3599       C  0.88672767  0.23719646  0.75549727    -0.39800
C3600       C  0.89031082  0.24332891  0.77822034     0.21000
N3601       N  0.89609774  0.23707108  0.81538806    -0.33100
C3602       C  0.88821141  0.25847849  0.81230297    -0.10600
C3603       C  0.88489974  0.26315363  0.78931894    -0.29400
N3604       N  0.88543062  0.20369237  0.73066821    -0.46000
C3605       C  0.88904504  0.18127641  0.73451130    -0.05300
C3606       C  0.89668910  0.17757057  0.75664733    -0.22700
H3607       H  0.90512570  0.19248819  0.80221539     0.19100
H3608       H  0.88018254  0.24909519  0.74309333     0.17900
H3609       H  0.87740002  0.27824817  0.78195548     0.14200
H3610       H  0.89966168  0.16140767  0.76489624     0.14100
H3611       H  0.89872562  0.22874288  0.83084390     0.32200
H3612       H  0.87858264  0.21110807  0.71606737     0.35000
C3613       C  0.86509672  0.36976678  0.77376139     0.20600
C3614       C  0.85292345  0.37971510  0.75587239    -0.39300
C3615       C  0.86133961  0.37549621  0.73400594     0.19600
C3616       C  0.88011273  0.36180728  0.73014071     0.22200
C3617       C  0.89255314  0.35213747  0.74810627    -0.39800
C3618       C  0.88447819  0.35689047  0.77008318     0.21000
N3619       N  0.85860386  0.36853594  0.79560607    -0.33100
C3620       C  0.87412193  0.35514995  0.80608261    -0.10600
C3621       C  0.89068451  0.34773000  0.79078130    -0.29400
N3622       N  0.88206188  0.35704719  0.70785855    -0.46000
C3623       C  0.86465354  0.36810501  0.69754342    -0.05300
C3624       C  0.85154155  0.37994401  0.71326854    -0.22700
H3625       H  0.83720089  0.38888944  0.75868397     0.19100
H3626       H  0.90660930  0.34062390  0.74515434     0.17900
H3627       H  0.90376554  0.33514560  0.79381361     0.14200
H3628       H  0.83537794  0.38825103  0.71025318     0.14100
H3629       H  0.84352740  0.37487760  0.80258949     0.32200
H3630       H  0.89324249  0.34543575  0.70040821     0.35000
C3631       C  0.76656655  0.34551189  0.88622443     0.20600
C3632       C  0.74475750  0.33669021  0.89008696    -0.39300
C3633       C  0.72668566  0.34951557  0.88151044     0.19600
C3634       C  0.72998150  0.36978006  0.87001581     0.22200
C3635       C  0.75193642  0.37851058  0.86589828    -0.39800
C3636       C  0.77014908  0.36558838  0.87448042     0.21000
N3637       N  0.78625485  0.33457974  0.88953945    -0.33100
C3638       C  0.80264625  0.34740758  0.87964189    -0.10600
C3639       C  0.79334725  0.36716891  0.87033669    -0.29400
N3640       N  0.71025918  0.37701796  0.86090282    -0.46000
C3641       C  0.69454438  0.36099041  0.86625319    -0.05300
C3642       C  0.70414876  0.34367761  0.87918715    -0.22700
H3643       H  0.74215621  0.32018889  0.89779830     0.19100
H3644       H  0.75468017  0.39343303  0.85549536     0.17900
H3645       H  0.80183875  0.37935371  0.85944999     0.14200
H3646       H  0.69625488  0.32779456  0.88412050     0.14100
H3647       H  0.78812458  0.31815072  0.89600853     0.32200
H3648       H  0.70816803  0.39058355  0.84964648     0.35000
loop_ 
_geom_bond_atom_site_label_1 
_geom_bond_atom_site_label_2 
_geom_bond_distance 
_geom_bond_site_symmetry_2 
_ccdc_geom_bond_type 
O1          Cr19   1.990       .  S
O1            C9   1.258       .  A
O2          Cr19   1.948       .  S
O2            C3   1.256       .  A
C3            O4   1.275       .  A
C3         C3638   1.467       .  S
O4          Cr20   2.048       .  S
O5          Cr20   1.996       .  S
O5            C6   1.264       .  A
C6            O7   1.264       .  A
C6         C3551   1.476       .  S
O7          Cr21   1.990       .  S
O8          Cr21   1.996       .  S
O8            C9   1.258       .  A
C9         C3584   1.469       .  S
O10         Cr19   1.968       .  S
O10          C18   1.261       .  A
O11         Cr19   1.996       .  S
O11          C12   1.256       .  A
C12          O13   1.257       .  A
C12        C3620   1.466       .  S
O13         Cr20   1.997       .  S
O14         Cr20   2.019       .  S
O14          C15   1.268       .  A
C15          O16   1.261       .  A
C15        C3566   1.477       .  S
O16         Cr21   1.973       .  S
O17         Cr21   2.019       .  S
O17          C18   1.271       .  A
C18        C3602   1.470       .  S
Cr19         O22   1.770       .  S
Cr20         O22   1.779       .  S
Cr21         O22   1.772       .  S
O23         Cr41   1.982       .  S
O23          C31   1.256       .  A
O24         Cr41   1.964       .  S
O24          C25   1.259       .  A
C25          O26   1.273       .  A
C25        C3494   1.467       .  S
O26         Cr42   2.037       .  S
O27         Cr42   1.988       .  S
O27          C28   1.263       .  A
C28          O29   1.266       .  A
C28        C3476   1.476       .  S
O29         Cr43   1.999       .  S
O30         Cr43   2.004       .  S
O30          C31   1.258       .  A
C31        C3530   1.474       .  S
O32         Cr41   1.976       .  S
O32          C40   1.265       .  A
O33         Cr41   1.998       .  S
O33          C34   1.257       .  A
C34          O35   1.258       .  A
C34        C3512   1.471       .  S
O35         Cr42   2.003       .  S
O36         Cr42   2.006       .  S
O36          C37   1.265       .  A
C37          O38   1.261       .  A
C37        C3458   1.479       .  S
O38         Cr43   1.983       .  S
O39         Cr43   2.019       .  S
O39          C40   1.273       .  A
C40        C3587   1.474       .  S
Cr41         O44   1.771       .  S
Cr42         O44   1.781       .  S
Cr43         O44   1.775       .  S
O45         Cr63   1.977       .  S
O45          C53   1.263       .  A
O46         Cr63   1.997       .  S
O46          C47   1.256       .  A
C47          O48   1.258       .  A
C47        C3440   1.469       .  S
O48         Cr64   2.001       .  S
O49         Cr64   2.012       .  S
O49          C50   1.267       .  A
C50          O51   1.259       .  A
C50        C3389   1.470       .  S
O51         Cr65   1.962       .  S
O52         Cr65   2.022       .  S
O52          C53   1.272       .  A
C53        C3605   1.474       .  S
O54         Cr63   1.989       .  S
O54          C62   1.257       .  A
O55         Cr63   1.952       .  S
O55          C56   1.258       .  A
C56          O57   1.275       .  A
C56        C3425   1.467       .  S
O57         Cr64   2.042       .  S
O58         Cr64   1.997       .  S
O58          C59   1.264       .  A
C59          O60   1.265       .  A
C59        C3404   1.482       .  S
O60         Cr65   2.000       .  S
O61         Cr65   1.990       .  S
O61          C62   1.257       .  A
C62        C3533   1.467       .  S
Cr63         O66   1.772       .  S
Cr64         O66   1.784       .  S
Cr65         O66   1.774       .  S
O67         Cr85   1.974       .  S
O67          C75   1.263       .  A
O68         Cr85   1.996       .  S
O68          C69   1.258       .  A
C69          O70   1.258       .  A
C69        C3641   1.464       .  S
O70         Cr86   1.993       .  S
O71         Cr86   2.032       .  S
O71          C72   1.272       .  A
C72          O73   1.260       .  A
C72        C3314   1.484       .  S
O73         Cr87   1.971       .  S
O74         Cr87   2.022       .  S
O74          C75   1.272       .  A
C75        C3368   1.472       .  S
O76         Cr85   1.985       .  S
O76          C84   1.259       .  A
O77         Cr85   1.955       .  S
O77          C78   1.257       .  A
C78          O79   1.276       .  A
C78        C3515   1.475       .  S
O79         Cr86   2.053       .  S
O80         Cr86   1.983       .  S
O80          C81   1.261       .  A
C81          O82   1.267       .  A
C81        C3332   1.474       .  S
O82         Cr87   2.005       .  S
O83         Cr87   1.995       .  S
O83          C84   1.259       .  A
C84        C3353   1.466       .  S
Cr85         O88   1.765       .  S
Cr86         O88   1.774       .  S
Cr87         O88   1.770       .  S
O89        Cr107   1.995       .  S
O89          C97   1.262       .  A
O90        Cr107   1.951       .  S
O90          C91   1.255       .  A
C91          O92   1.274       .  A
C91        C3443   1.468       .  S
O92        Cr108   2.044       .  S
O93        Cr108   1.985       .  S
O93          C94   1.260       .  A
C94          O95   1.268       .  A
C94        C3278   1.479       .  S
O95        Cr109   2.014       .  S
O96        Cr109   1.989       .  S
O96          C97   1.260       .  A
C97        C3299   1.467       .  S
O98        Cr107   1.975       .  S
O98         C106   1.261       .  A
O99        Cr107   2.003       .  S
O99         C100   1.259       .  A
C100        O101   1.257       .  A
C100       C3623   1.464       .  S
O101       Cr108   1.988       .  S
O102       Cr108   2.034       .  S
O102        C103   1.272       .  A
C103        O104   1.258       .  A
C103       C3260   1.481       .  S
O104       Cr109   1.964       .  S
O105       Cr109   2.021       .  S
O105        C106   1.271       .  A
C106       C3371   1.473       .  S
Cr107       O110   1.766       .  S
Cr108       O110   1.776       .  S
Cr109       O110   1.768       .  S
O111       Cr129   1.988       .  S
O111        C119   1.261       .  A
O112       Cr129   1.965       .  S
O112        C113   1.258       .  A
C113        O114   1.272       .  A
C113       C3497   1.472       .  S
O114       Cr130   2.040       .  S
O115       Cr130   1.995       .  S
O115        C116   1.264       .  A
C116        O117   1.267       .  A
C116       C3224   1.480       .  S
O117       Cr131   2.005       .  S
O118       Cr131   1.991       .  S
O118        C119   1.261       .  A
C119       C3350   1.466       .  S
O120       Cr129   1.977       .  S
O120        C128   1.261       .  A
O121       Cr129   1.996       .  S
O121        C122   1.261       .  A
C122        O123   1.259       .  A
C122       C3422   1.466       .  S
O123       Cr130   1.997       .  S
O124       Cr130   2.022       .  S
O124        C125   1.268       .  A
C125        O126   1.259       .  A
C125       C3242   1.473       .  S
O126       Cr131   1.967       .  S
O127       Cr131   2.012       .  S
O127        C128   1.267       .  A
C128       C3296   1.472       .  S
Cr129       O132   1.762       .  S
Cr130       O132   1.777       .  S
Cr131       O132   1.770       .  S
O133       Cr151   1.970       .  S
O133        C141   1.261       .  A
O134       Cr151   2.010       .  S
O134        C135   1.262       .  A
C135        O136   1.260       .  A
C135       C3170   1.470       .  S
O136       Cr152   1.992       .  S
O137       Cr152   2.016       .  S
O137        C138   1.267       .  A
C138        O139   1.259       .  A
C138       C3134   1.471       .  S
O139       Cr153   1.970       .  S
O140       Cr153   2.012       .  S
O140        C141   1.267       .  A
C141       C3206   1.467       .  S
O142       Cr151   1.989       .  S
O142        C150   1.262       .  A
O143       Cr151   1.968       .  S
O143        C144   1.257       .  A
C144        O145   1.272       .  A
C144       C3152   1.472       .  S
O145       Cr152   2.036       .  S
O146       Cr152   1.985       .  S
O146        C147   1.262       .  A
C147        O148   1.265       .  A
C147       C3386   1.467       .  S
O148       Cr153   1.994       .  S
O149       Cr153   1.988       .  S
O149        C150   1.258       .  A
C150       C3188   1.465       .  S
Cr151       O154   1.762       .  S
Cr152       O154   1.773       .  S
Cr153       O154   1.773       .  S
O155       Cr173   1.982       .  S
O155        C163   1.262       .  A
O156       Cr173   1.999       .  S
O156        C157   1.260       .  A
C157        O158   1.260       .  A
C157       C3101   1.470       .  S
O158       Cr174   2.000       .  S
O159       Cr174   2.013       .  S
O159        C160   1.266       .  A
C160        O161   1.260       .  A
C160       C3044   1.472       .  S
O161       Cr175   1.975       .  S
O162       Cr175   2.012       .  S
O162        C163   1.267       .  A
C163       C3080   1.473       .  S
O164       Cr173   1.983       .  S
O164        C172   1.260       .  A
O165       Cr173   1.966       .  S
O165        C166   1.257       .  A
C166        O167   1.271       .  A
C166       C3116   1.469       .  S
O167       Cr174   2.035       .  S
O168       Cr174   1.997       .  S
O168        C169   1.265       .  A
C169        O170   1.267       .  A
C169       C3065   1.484       .  S
O170       Cr175   2.011       .  S
O171       Cr175   1.990       .  S
O171        C172   1.262       .  A
C172       C3209   1.462       .  S
Cr173       O176   1.768       .  S
Cr174       O176   1.776       .  S
Cr175       O176   1.771       .  S
O177       Cr195   1.995       .  S
O177        C185   1.263       .  A
O178       Cr195   1.952       .  S
O178        C179   1.254       .  A
C179        O180   1.273       .  A
C179       C3029   1.472       .  S
O180       Cr196   2.046       .  S
O181       Cr196   1.988       .  S
O181        C182   1.263       .  A
C182        O183   1.269       .  A
C182       C3569   1.480       .  S
O183       Cr197   2.012       .  S
O184       Cr197   1.984       .  S
O184        C185   1.258       .  A
C185       C3191   1.465       .  S
O186       Cr195   1.976       .  S
O186        C194   1.260       .  A
O187       Cr195   2.007       .  S
O187        C188   1.261       .  A
C188        O189   1.259       .  A
C188       C3008   1.467       .  S
O189       Cr196   1.991       .  S
O190       Cr196   2.022       .  S
O190        C191   1.268       .  A
C191        O192   1.260       .  A
C191       C2990   1.473       .  S
O192       Cr197   1.970       .  S
O193       Cr197   2.023       .  S
O193        C194   1.270       .  A
C194       C3083   1.475       .  S
Cr195       O198   1.765       .  S
Cr196       O198   1.777       .  S
Cr197       O198   1.768       .  S
O199       Cr217   1.994       .  S
O199        C207   1.261       .  A
O200       Cr217   1.959       .  S
O200        C201   1.256       .  A
C201        O202   1.273       .  A
C201       C3098   1.472       .  S
O202       Cr218   2.045       .  S
O203       Cr218   1.989       .  S
O203        C204   1.263       .  A
C204        O205   1.266       .  A
C204       C3335   1.473       .  S
O205       Cr219   2.001       .  S
O206       Cr219   1.990       .  S
O206        C207   1.259       .  A
C207       C2972   1.469       .  S
O208       Cr217   1.973       .  S
O208        C216   1.260       .  A
O209       Cr217   2.003       .  S
O209        C210   1.260       .  A
C210        O211   1.258       .  A
C210       C3011   1.466       .  S
O211       Cr218   1.991       .  S
O212       Cr218   2.021       .  S
O212        C213   1.269       .  A
C213        O214   1.260       .  A
C213       C2936   1.473       .  S
O214       Cr219   1.967       .  S
O215       Cr219   2.024       .  S
O215        C216   1.271       .  A
C216       C2954   1.475       .  S
Cr217       O220   1.765       .  S
Cr218       O220   1.775       .  S
Cr219       O220   1.772       .  S
O221       Cr239   1.982       .  S
O221        C229   1.263       .  A
O222       Cr239   1.998       .  S
O222        C223   1.258       .  A
C223        O224   1.262       .  A
C223       C3026   1.474       .  S
O224       Cr240   2.010       .  S
O225       Cr240   2.023       .  S
O225        C226   1.268       .  A
C226        O227   1.263       .  A
C226       C2882   1.488       .  S
O227       Cr241   1.986       .  S
O228       Cr241   2.022       .  S
O228        C229   1.271       .  A
C229       C2957   1.479       .  S
O230       Cr239   1.987       .  S
O230        C238   1.258       .  A
O231       Cr239   1.968       .  S
O231        C232   1.258       .  A
C232        O233   1.272       .  A
C232       C3155   1.471       .  S
O233       Cr240   2.038       .  S
O234       Cr240   2.010       .  S
O234        C235   1.267       .  A
C235        O236   1.268       .  A
C235       C2900   1.493       .  S
O236       Cr241   2.010       .  S
O237       Cr241   2.001       .  S
O237        C238   1.261       .  A
C238       C2921   1.473       .  S
Cr239       O242   1.774       .  S
Cr240       O242   1.780       .  S
Cr241       O242   1.775       .  S
O243       Cr261   1.982       .  S
O243        C251   1.263       .  A
O244       Cr261   2.003       .  S
O244        C245   1.259       .  A
C245        O246   1.260       .  A
C245       C3173   1.469       .  S
O246       Cr262   1.997       .  S
O247       Cr262   2.030       .  S
O247        C248   1.271       .  A
C248        O249   1.261       .  A
C248       C2867   1.484       .  S
O249       Cr263   1.978       .  S
O250       Cr263   2.017       .  S
O250        C251   1.270       .  A
C251       C2918   1.476       .  S
O252       Cr261   1.988       .  S
O252        C260   1.260       .  A
O253       Cr261   1.963       .  S
O253        C254   1.257       .  A
C254        O255   1.274       .  A
C254       C3119   1.474       .  S
O255       Cr262   2.046       .  S
O256       Cr262   1.989       .  S
O256        C257   1.263       .  A
C257        O258   1.267       .  A
C257       C3227   1.481       .  S
O258       Cr263   2.011       .  S
O259       Cr263   1.998       .  S
O259        C260   1.261       .  A
C260       C2975   1.470       .  S
Cr261       O264   1.769       .  S
Cr262       O264   1.776       .  S
Cr263       O264   1.772       .  S
O265       Cr283   1.992       .  S
O265        C273   1.261       .  A
O266       Cr283   1.952       .  S
O266        C267   1.256       .  A
C267        O268   1.275       .  A
C267       C2846   1.473       .  S
O268       Cr284   2.050       .  S
O269       Cr284   1.996       .  S
O269        C270   1.264       .  A
C270        O271   1.267       .  A
C270       C3062   1.483       .  S
O271       Cr285   2.007       .  S
O272       Cr285   1.988       .  S
O272        C273   1.259       .  A
C273       C2810   1.466       .  S
O274       Cr283   1.974       .  S
O274        C282   1.262       .  A
O275       Cr283   2.002       .  S
O275        C276   1.259       .  A
C276        O277   1.261       .  A
C276       C2828   1.473       .  S
O277       Cr284   2.004       .  S
O278       Cr284   2.031       .  S
O278        C279   1.271       .  A
C279        O280   1.259       .  A
C279       C2774   1.480       .  S
O280       Cr285   1.970       .  S
O281       Cr285   2.014       .  S
O281        C282   1.268       .  A
C282       C2795   1.470       .  S
Cr283       O286   1.766       .  S
Cr284       O286   1.774       .  S
Cr285       O286   1.771       .  S
O287       Cr305   1.986       .  S
O287        C295   1.257       .  A
O288       Cr305   1.966       .  S
O288        C289   1.257       .  A
C289        O290   1.272       .  A
C289       C2738   1.469       .  S
O290       Cr306   2.039       .  S
O291       Cr306   1.999       .  S
O291        C292   1.267       .  A
C292        O293   1.267       .  A
C292       C2687   1.483       .  S
O293       Cr307   2.002       .  S
O294       Cr307   1.987       .  S
O294        C295   1.257       .  A
C295       C2792   1.465       .  S
O296       Cr305   1.975       .  S
O296        C304   1.263       .  A
O297       Cr305   2.002       .  S
O297        C298   1.260       .  A
C298        O299   1.261       .  A
C298       C2720   1.475       .  S
O299       Cr306   2.007       .  S
O300       Cr306   2.011       .  S
O300        C301   1.265       .  A
C301        O302   1.258       .  A
C301       C2705   1.472       .  S
O302       Cr307   1.970       .  S
O303       Cr307   2.014       .  S
O303        C304   1.270       .  A
C304       C2756   1.472       .  S
Cr305       O308   1.770       .  S
Cr306       O308   1.781       .  S
Cr307       O308   1.777       .  S
O309       Cr327   1.990       .  S
O309        C317   1.260       .  A
O310       Cr327   1.960       .  S
O310        C311   1.258       .  A
C311        O312   1.274       .  A
C311       C2648   1.472       .  S
O312       Cr328   2.044       .  S
O313       Cr328   1.987       .  S
O313        C314   1.262       .  A
C314        O315   1.267       .  A
C314       C2630   1.476       .  S
O315       Cr329   2.004       .  S
O316       Cr329   1.991       .  S
O316        C317   1.260       .  A
C317       C2759   1.466       .  S
O318       Cr327   1.978       .  S
O318        C326   1.262       .  A
O319       Cr327   1.998       .  S
O319        C320   1.259       .  A
C320        O321   1.258       .  A
C320       C2666   1.468       .  S
O321       Cr328   1.996       .  S
O322       Cr328   2.021       .  S
O322        C323   1.268       .  A
C323        O324   1.258       .  A
C323       C3137   1.472       .  S
O324       Cr329   1.963       .  S
O325       Cr329   2.017       .  S
O325        C326   1.270       .  A
C326       C2813   1.474       .  S
Cr327       O330   1.765       .  S
Cr328       O330   1.777       .  S
Cr329       O330   1.771       .  S
O331       Cr349   1.997       .  S
O331        C339   1.262       .  A
O332       Cr349   1.959       .  S
O332        C333   1.256       .  A
C333        O334   1.275       .  A
C333       C2741   1.473       .  S
O334       Cr350   2.047       .  S
O335       Cr350   1.986       .  S
O335        C336   1.263       .  A
C336        O337   1.266       .  A
C336       C2939   1.473       .  S
O337       Cr351   2.000       .  S
O338       Cr351   1.992       .  S
O338        C339   1.260       .  A
C339       C2594   1.472       .  S
O340       Cr349   1.972       .  S
O340        C348   1.260       .  A
O341       Cr349   2.006       .  S
O341        C342   1.260       .  A
C342        O343   1.258       .  A
C342       C2831   1.470       .  S
O343       Cr350   1.995       .  S
O344       Cr350   2.023       .  S
O344        C345   1.268       .  A
C345        O346   1.258       .  A
C345       C2579   1.477       .  S
O346       Cr351   1.968       .  S
O347       Cr351   2.011       .  S
O347        C348   1.268       .  A
C348       C2615   1.468       .  S
Cr349       O352   1.767       .  S
Cr350       O352   1.779       .  S
Cr351       O352   1.771       .  S
O353       Cr371   1.973       .  S
O353        C361   1.261       .  A
O354       Cr371   2.001       .  S
O354        C355   1.260       .  A
C355        O356   1.261       .  A
C355       C2849   1.475       .  S
O356       Cr372   2.005       .  S
O357       Cr372   2.014       .  S
O357        C358   1.267       .  A
C358        O359   1.259       .  A
C358       C2522   1.475       .  S
O359       Cr373   1.973       .  S
O360       Cr373   2.012       .  S
O360        C361   1.268       .  A
C361       C2612   1.470       .  S
O362       Cr371   1.993       .  S
O362        C370   1.260       .  A
O363       Cr371   1.962       .  S
O363        C364   1.257       .  A
C364        O365   1.272       .  A
C364       C2669   1.472       .  S
O365       Cr372   2.043       .  S
O366       Cr372   2.001       .  S
O366        C367   1.266       .  A
C367        O368   1.266       .  A
C367       C2543   1.480       .  S
O368       Cr373   1.996       .  S
O369       Cr373   1.995       .  S
O369        C370   1.260       .  A
C370       C2558   1.473       .  S
Cr371       O374   1.769       .  S
Cr372       O374   1.782       .  S
Cr373       O374   1.778       .  S
O375       Cr393   1.977       .  S
O375        C383   1.263       .  A
O376       Cr393   2.002       .  S
O376        C377   1.259       .  A
C377        O378   1.259       .  A
C377       C2651   1.472       .  S
O378       Cr394   2.001       .  S
O379       Cr394   2.026       .  S
O379        C380   1.269       .  A
C380        O381   1.261       .  A
C380       C2504   1.485       .  S
O381       Cr395   1.977       .  S
O382       Cr395   2.027       .  S
O382        C383   1.272       .  A
C383       C2561   1.480       .  S
O384       Cr393   1.989       .  S
O384        C392   1.259       .  A
O385       Cr393   1.960       .  S
O385        C386   1.257       .  A
C386        O387   1.275       .  A
C386       C2723   1.477       .  S
O387       Cr394   2.051       .  S
O388       Cr394   2.002       .  S
O388        C389   1.266       .  A
C389        O390   1.268       .  A
C389       C2885   1.489       .  S
O390       Cr395   2.008       .  S
O391       Cr395   1.995       .  S
O391        C392   1.258       .  A
C392       C2597   1.471       .  S
Cr393       O396   1.773       .  S
Cr394       O396   1.783       .  S
Cr395       O396   1.774       .  S
O397       Cr415   1.979       .  S
O397        C405   1.263       .  A
O398       Cr415   2.006       .  S
O398        C399   1.260       .  A
C399        O400   1.261       .  A
C399       C2468   1.474       .  S
O400       Cr416   2.003       .  S
O401       Cr416   2.022       .  S
O401        C402   1.267       .  A
C402        O403   1.260       .  A
C402       C3407   1.483       .  S
O403       Cr417   1.978       .  S
O404       Cr417   2.013       .  S
O404        C405   1.270       .  A
C405       C2486   1.473       .  S
O406       Cr415   1.991       .  S
O406        C414   1.260       .  A
O407       Cr415   1.968       .  S
O407        C408   1.258       .  A
C408        O409   1.272       .  A
C408       C2432   1.472       .  S
O409       Cr416   2.040       .  S
O410       Cr416   1.988       .  S
O410        C411   1.263       .  A
C411        O412   1.269       .  A
C411       C2633   1.476       .  S
O412       Cr417   2.007       .  S
O413       Cr417   1.999       .  S
O413        C414   1.261       .  A
C414       C2450   1.476       .  S
Cr415       O418   1.768       .  S
Cr416       O418   1.779       .  S
Cr417       O418   1.773       .  S
O419       Cr437   1.996       .  S
O419        C427   1.261       .  A
O420       Cr437   1.953       .  S
O420        C421   1.255       .  A
C421        O422   1.275       .  A
C421       C2378   1.471       .  S
O422       Cr438   2.049       .  S
O423       Cr438   1.987       .  S
O423        C424   1.263       .  A
C424        O425   1.264       .  A
C424       C2702   1.471       .  S
O425       Cr439   1.994       .  S
O426       Cr439   1.992       .  S
O426        C427   1.258       .  A
C427       C2453   1.471       .  S
O428       Cr437   1.966       .  S
O428        C436   1.259       .  A
O429       Cr437   2.004       .  S
O429        C430   1.261       .  A
C430        O431   1.258       .  A
C430       C2396   1.469       .  S
O431       Cr438   1.995       .  S
O432       Cr438   2.022       .  S
O432        C433   1.268       .  A
C433        O434   1.260       .  A
C433       C2360   1.475       .  S
O434       Cr439   1.967       .  S
O435       Cr439   2.016       .  S
O435        C436   1.269       .  A
C436       C2414   1.466       .  S
Cr437       O440   1.764       .  S
Cr438       O440   1.776       .  S
Cr439       O440   1.772       .  S
O441       Cr459   1.991       .  S
O441        C449   1.261       .  A
O442       Cr459   1.956       .  S
O442        C443   1.256       .  A
C443        O444   1.273       .  A
C443       C2342   1.474       .  S
O444       Cr460   2.046       .  S
O445       Cr460   1.994       .  S
O445        C446   1.263       .  A
C446        O447   1.267       .  A
C446       C2306   1.483       .  S
O447       Cr461   2.011       .  S
O448       Cr461   1.977       .  S
O448        C449   1.257       .  A
C449       C2417   1.458       .  S
O450       Cr459   1.977       .  S
O450        C458   1.261       .  A
O451       Cr459   1.999       .  S
O451        C452   1.261       .  A
C452        O453   1.261       .  A
C452       C2324   1.471       .  S
O453       Cr460   1.999       .  S
O454       Cr460   2.029       .  S
O454        C455   1.271       .  A
C455        O456   1.260       .  A
C455       C3479   1.478       .  S
O456       Cr461   1.965       .  S
O457       Cr461   2.024       .  S
O457        C458   1.270       .  A
C458       C2489   1.476       .  S
Cr459       O462   1.767       .  S
Cr460       O462   1.776       .  S
Cr461       O462   1.772       .  S
O463       Cr481   1.964       .  S
O463        C471   1.260       .  A
O464       Cr481   2.003       .  S
O464        C465   1.262       .  A
C465        O466   1.262       .  A
C465       C2381   1.473       .  S
O466       Cr482   2.003       .  S
O467       Cr482   2.026       .  S
O467        C468   1.269       .  A
C468        O469   1.260       .  A
C468       C3263   1.483       .  S
O469       Cr483   1.978       .  S
O470       Cr483   2.013       .  S
O470        C471   1.269       .  A
C471       C2288   1.464       .  S
O472       Cr481   1.984       .  S
O472        C480   1.258       .  A
O473       Cr481   1.966       .  S
O473        C474   1.256       .  A
C474        O475   1.272       .  A
C474       C2435   1.472       .  S
O475       Cr482   2.040       .  S
O476       Cr482   1.990       .  S
O476        C477   1.263       .  A
C477        O478   1.266       .  A
C477       C2252   1.473       .  S
O478       Cr483   2.000       .  S
O479       Cr483   1.995       .  S
O479        C480   1.260       .  A
C480       C2270   1.465       .  S
Cr481       O484   1.763       .  S
Cr482       O484   1.772       .  S
Cr483       O484   1.772       .  S
O485       Cr503   1.976       .  S
O485        C493   1.263       .  A
O486       Cr503   1.995       .  S
O486        C487   1.257       .  A
C487        O488   1.259       .  A
C487       C2345   1.471       .  S
O488       Cr504   2.005       .  S
O489       Cr504   2.015       .  S
O489        C490   1.267       .  A
C490        O491   1.259       .  A
C490       C2576   1.475       .  S
O491       Cr505   1.970       .  S
O492       Cr505   2.012       .  S
O492        C493   1.270       .  A
C493       C2234   1.470       .  S
O494       Cr503   1.981       .  S
O494        C502   1.257       .  A
O495       Cr503   1.954       .  S
O495        C496   1.257       .  A
C496        O497   1.275       .  A
C496       C2399   1.470       .  S
O497       Cr504   2.046       .  S
O498       Cr504   1.997       .  S
O498        C499   1.265       .  A
C499        O500   1.267       .  A
C499       C3317   1.484       .  S
O500       Cr505   2.004       .  S
O501       Cr505   1.988       .  S
O501        C502   1.258       .  A
C502       C2291   1.460       .  S
Cr503       O506   1.771       .  S
Cr504       O506   1.778       .  S
Cr505       O506   1.771       .  S
O507       Cr525   1.980       .  S
O507        C515   1.263       .  A
O508       Cr525   2.002       .  S
O508        C509   1.259       .  A
C509        O510   1.260       .  A
C509       C2471   1.472       .  S
O510       Cr526   1.999       .  S
O511       Cr526   2.025       .  S
O511        C512   1.269       .  A
C512        O513   1.260       .  A
C512       C2219   1.478       .  S
O513       Cr527   1.970       .  S
O514       Cr527   2.009       .  S
O514        C515   1.267       .  A
C515       C2273   1.472       .  S
O516       Cr525   1.990       .  S
O516        C524   1.260       .  A
O517       Cr525   1.957       .  S
O517        C518   1.256       .  A
C518        O519   1.274       .  A
C518       C2327   1.474       .  S
O519       Cr526   2.048       .  S
O520       Cr526   1.991       .  S
O520        C521   1.263       .  A
C521        O522   1.264       .  A
C521       C2525   1.474       .  S
O522       Cr527   1.996       .  S
O523       Cr527   1.988       .  S
O523        C524   1.259       .  A
C524       C2237   1.465       .  S
Cr525       O528   1.767       .  S
Cr526       O528   1.779       .  S
Cr527       O528   1.773       .  S
O529       Cr547   1.987       .  S
O529        C537   1.259       .  A
O530       Cr547   1.952       .  S
O530        C531   1.257       .  A
C531        O532   1.275       .  A
C531       C2180   1.474       .  S
O532       Cr548   2.049       .  S
O533       Cr548   1.998       .  S
O533        C534   1.265       .  A
C534        O535   1.266       .  A
C534       C2126   1.482       .  S
O535       Cr549   2.002       .  S
O536       Cr549   1.986       .  S
O536        C537   1.257       .  A
C537       C2162   1.460       .  S
O538       Cr547   1.966       .  S
O538        C546   1.261       .  A
O539       Cr547   2.002       .  S
O539        C540   1.259       .  A
C540        O541   1.261       .  A
C540       C2198   1.476       .  S
O541       Cr548   2.007       .  S
O542       Cr548   2.023       .  S
O542        C543   1.269       .  A
C543        O544   1.259       .  A
C543       C3548   1.472       .  S
O544       Cr549   1.962       .  S
O545       Cr549   2.024       .  S
O545        C546   1.271       .  A
C546       C2144   1.470       .  S
Cr547       O550   1.764       .  S
Cr548       O550   1.774       .  S
Cr549       O550   1.773       .  S
O551       Cr569   1.986       .  S
O551        C559   1.263       .  A
O552       Cr569   2.001       .  S
O552        C553   1.261       .  A
C553        O554   1.261       .  A
C553       C2183   1.472       .  S
O554       Cr570   2.001       .  S
O555       Cr570   2.026       .  S
O555        C556   1.269       .  A
C556        O557   1.261       .  A
C556       C2054   1.481       .  S
O557       Cr571   1.978       .  S
O558       Cr571   2.016       .  S
O558        C559   1.269       .  A
C559       C2075   1.478       .  S
O560       Cr569   1.990       .  S
O560        C568   1.261       .  A
O561       Cr569   1.969       .  S
O561        C562   1.258       .  A
C562        O563   1.272       .  A
C562       C2090   1.477       .  S
O563       Cr570   2.042       .  S
O564       Cr570   1.993       .  S
O564        C565   1.263       .  A
C565        O566   1.268       .  A
C565       C3281   1.480       .  S
O566       Cr571   2.009       .  S
O567       Cr571   1.995       .  S
O567        C568   1.261       .  A
C568       C2108   1.469       .  S
Cr569       O572   1.767       .  S
Cr570       O572   1.776       .  S
Cr571       O572   1.769       .  S
O573       Cr591   1.971       .  S
O573        C581   1.261       .  A
O574       Cr591   2.007       .  S
O574        C575   1.262       .  A
C575        O576   1.260       .  A
C575       C2039   1.467       .  S
O576       Cr592   1.990       .  S
O577       Cr592   2.023       .  S
O577        C578   1.268       .  A
C578        O579   1.260       .  A
C578       C2003   1.482       .  S
O579       Cr593   1.979       .  S
O580       Cr593   2.015       .  S
O580        C581   1.269       .  A
C581       C2018   1.470       .  S
O582       Cr591   1.983       .  S
O582        C590   1.260       .  A
O583       Cr591   1.976       .  S
O583        C584   1.257       .  A
C584        O585   1.271       .  A
C584       C2093   1.476       .  S
O585       Cr592   2.039       .  S
O586       Cr592   1.983       .  S
O586        C587   1.263       .  A
C587        O588   1.268       .  A
C587       C1982   1.472       .  S
O588       Cr593   2.006       .  S
O589       Cr593   1.989       .  S
O589        C590   1.259       .  A
C590       C2165   1.464       .  S
Cr591       O594   1.766       .  S
Cr592       O594   1.773       .  S
Cr593       O594   1.775       .  S
O595       Cr613   1.979       .  S
O595        C603   1.256       .  A
O596       Cr613   1.963       .  S
O596        C597   1.257       .  A
C597        O598   1.273       .  A
C597       C1964   1.468       .  S
O598       Cr614   2.040       .  S
O599       Cr614   1.995       .  S
O599        C600   1.265       .  A
C600        O601   1.267       .  A
C600       C3461   1.481       .  S
O601       Cr615   2.001       .  S
O602       Cr615   1.994       .  S
O602        C603   1.259       .  A
C603       C2147   1.463       .  S
O604       Cr613   1.971       .  S
O604        C612   1.263       .  A
O605       Cr613   1.991       .  S
O605        C606   1.258       .  A
C606        O607   1.262       .  A
C606       C1949   1.470       .  S
O607       Cr614   2.009       .  S
O608       Cr614   2.021       .  S
O608        C609   1.268       .  A
C609        O610   1.260       .  A
C609       C1928   1.483       .  S
O610       Cr615   1.979       .  S
O611       Cr615   2.012       .  S
O611        C612   1.269       .  A
C612       C2021   1.467       .  S
Cr613       O616   1.767       .  S
Cr614       O616   1.779       .  S
Cr615       O616   1.772       .  S
O617       Cr635   1.988       .  S
O617        C625   1.261       .  A
O618       Cr635   1.968       .  S
O618        C619   1.256       .  A
C619        O620   1.271       .  A
C619       C1967   1.472       .  S
O620       Cr636   2.038       .  S
O621       Cr636   1.988       .  S
O621        C622   1.264       .  A
C622        O623   1.271       .  A
C622       C1892   1.481       .  S
O623       Cr637   2.018       .  S
O624       Cr637   1.975       .  S
O624        C625   1.256       .  A
C625       C1913   1.456       .  S
O626       Cr635   1.973       .  S
O626        C634   1.260       .  A
O627       Cr635   2.006       .  S
O627        C628   1.262       .  A
C628        O629   1.262       .  A
C628       C2201   1.471       .  S
O629       Cr636   1.997       .  S
O630       Cr636   2.026       .  S
O630        C631   1.268       .  A
C631        O632   1.258       .  A
C631       C1874   1.476       .  S
O632       Cr637   1.968       .  S
O633       Cr637   2.028       .  S
O633        C634   1.271       .  A
C634       C2072   1.478       .  S
Cr635       O638   1.764       .  S
Cr636       O638   1.772       .  S
Cr637       O638   1.770       .  S
O639       Cr657   1.978       .  S
O639        C647   1.261       .  A
O640       Cr657   2.004       .  S
O640        C641   1.261       .  A
C641        O642   1.261       .  A
C641       C2036   1.471       .  S
O642       Cr658   1.998       .  S
O643       Cr658   2.028       .  S
O643        C644   1.270       .  A
C644        O645   1.258       .  A
C644       C3245   1.470       .  S
O645       Cr659   1.959       .  S
O646       Cr659   2.018       .  S
O646        C647   1.268       .  A
C647       C2111   1.474       .  S
O648       Cr657   1.993       .  S
O648        C656   1.262       .  A
O649       Cr657   1.953       .  S
O649        C650   1.256       .  A
C650        O651   1.271       .  A
C650       C1946   1.468       .  S
O651       Cr658   2.034       .  S
O652       Cr658   1.997       .  S
O652        C653   1.263       .  A
C653        O654   1.267       .  A
C653       C1856   1.484       .  S
O654       Cr659   2.011       .  S
O655       Cr659   1.976       .  S
O655        C656   1.257       .  A
C656       C1910   1.455       .  S
Cr657       O660   1.764       .  S
Cr658       O660   1.772       .  S
Cr659       O660   1.767       .  S
O661       Cr679   1.975       .  S
O661        C669   1.261       .  A
O662       Cr679   2.001       .  S
O662        C663   1.260       .  A
C663        O664   1.261       .  A
C663       C1838   1.472       .  S
O664       Cr680   2.003       .  S
O665       Cr680   2.006       .  S
O665        C666   1.263       .  A
C666        O667   1.260       .  A
C666       C1766   1.475       .  S
O667       Cr681   1.978       .  S
O668       Cr681   2.015       .  S
O668        C669   1.270       .  A
C669       C1787   1.472       .  S
O670       Cr679   1.992       .  S
O670        C678   1.259       .  A
O671       Cr679   1.958       .  S
O671        C672   1.256       .  A
C672        O673   1.269       .  A
C672       C1820   1.460       .  S
O673       Cr680   2.029       .  S
O674       Cr680   1.997       .  S
O674        C675   1.266       .  A
C675        O676   1.268       .  A
C675       C2000   1.482       .  S
O676       Cr681   2.005       .  S
O677       Cr681   1.985       .  S
O677        C678   1.257       .  A
C678       C1805   1.467       .  S
Cr679       O682   1.771       .  S
Cr680       O682   1.782       .  S
Cr681       O682   1.773       .  S
O683       Cr701   1.997       .  S
O683        C691   1.262       .  A
O684       Cr701   1.947       .  S
O684        C685   1.255       .  A
C685        O686   1.273       .  A
C685       C1730   1.469       .  S
O686       Cr702   2.046       .  S
O687       Cr702   1.983       .  S
O687        C688   1.262       .  A
C688        O689   1.268       .  A
C688       C2363   1.473       .  S
O689       Cr703   2.004       .  S
O690       Cr703   1.984       .  S
O690        C691   1.258       .  A
C691       C1712   1.467       .  S
O692       Cr701   1.967       .  S
O692        C700   1.259       .  A
O693       Cr701   2.005       .  S
O693        C694   1.260       .  A
C694        O695   1.256       .  A
C694       C1751   1.463       .  S
O695       Cr702   1.985       .  S
O696       Cr702   2.021       .  S
O696        C697   1.268       .  A
C697        O698   1.259       .  A
C697       C1694   1.477       .  S
O698       Cr703   1.969       .  S
O699       Cr703   2.021       .  S
O699        C700   1.270       .  A
C700       C1784   1.470       .  S
Cr701       O704   1.766       .  S
Cr702       O704   1.779       .  S
Cr703       O704   1.768       .  S
O705       Cr723   1.971       .  S
O705        C713   1.262       .  A
O706       Cr723   1.996       .  S
O706        C707   1.258       .  A
C707        O708   1.261       .  A
C707       C1676   1.466       .  S
O708       Cr724   2.001       .  S
O709       Cr724   2.027       .  S
O709        C710   1.268       .  A
C710        O711   1.260       .  A
C710       C1931   1.485       .  S
O711       Cr725   1.978       .  S
O712       Cr725   2.018       .  S
O712        C713   1.269       .  A
C713       C1802   1.471       .  S
O714       Cr723   1.985       .  S
O714        C722   1.259       .  A
O715       Cr723   1.966       .  S
O715        C716   1.258       .  A
C716        O717   1.272       .  A
C716       C1658   1.469       .  S
O717       Cr724   2.038       .  S
O718       Cr724   1.995       .  S
O718        C719   1.264       .  A
C719        O720   1.267       .  A
C719       C2309   1.480       .  S
O720       Cr725   2.002       .  S
O721       Cr725   1.997       .  S
O721        C722   1.260       .  A
C722       C1715   1.469       .  S
Cr723       O726   1.765       .  S
Cr724       O726   1.776       .  S
Cr725       O726   1.771       .  S
O727       Cr745   1.975       .  S
O727        C735   1.263       .  A
O728       Cr745   1.994       .  S
O728        C729   1.256       .  A
C729        O730   1.259       .  A
C729       C1679   1.467       .  S
O730       Cr746   2.002       .  S
O731       Cr746   2.006       .  S
O731        C732   1.265       .  A
C732        O733   1.258       .  A
C732       C1604   1.471       .  S
O733       Cr747   1.971       .  S
O734       Cr747   2.013       .  S
O734        C735   1.270       .  A
C735       C1622   1.469       .  S
O736       Cr745   1.983       .  S
O736        C744   1.258       .  A
O737       Cr745   1.960       .  S
O737        C738   1.258       .  A
C738        O739   1.273       .  A
C738       C1823   1.464       .  S
O739       Cr746   2.035       .  S
O740       Cr746   1.990       .  S
O740        C741   1.264       .  A
C741        O742   1.265       .  A
C741       C2216   1.474       .  S
O742       Cr747   1.996       .  S
O743       Cr747   1.993       .  S
O743        C744   1.257       .  A
C744       C1640   1.467       .  S
Cr745       O748   1.768       .  S
Cr746       O748   1.779       .  S
Cr747       O748   1.773       .  S
O749       Cr767   1.989       .  S
O749        C757   1.261       .  A
O750       Cr767   1.963       .  S
O750        C751   1.257       .  A
C751        O752   1.273       .  A
C751       C1841   1.473       .  S
O752       Cr768   2.045       .  S
O753       Cr768   1.979       .  S
O753        C754   1.261       .  A
C754        O755   1.268       .  A
C754       C2255   1.473       .  S
O755       Cr769   2.010       .  S
O756       Cr769   1.993       .  S
O756        C757   1.260       .  A
C757       C1643   1.467       .  S
O758       Cr767   1.976       .  S
O758        C766   1.262       .  A
O759       Cr767   2.004       .  S
O759        C760   1.260       .  A
C760        O761   1.258       .  A
C760       C1748   1.463       .  S
O761       Cr768   1.987       .  S
O762       Cr768   2.030       .  S
O762        C763   1.269       .  A
C763        O764   1.259       .  A
C763       C2057   1.482       .  S
O764       Cr769   1.972       .  S
O765       Cr769   2.016       .  S
O765        C766   1.269       .  A
C766       C1586   1.472       .  S
Cr767       O770   1.763       .  S
Cr768       O770   1.773       .  S
Cr769       O770   1.770       .  S
O771       Cr789   1.980       .  S
O771        C779   1.262       .  A
O772       Cr789   2.001       .  S
O772        C773   1.261       .  A
C773        O774   1.261       .  A
C773       C1733   1.465       .  S
O774       Cr790   1.995       .  S
O775       Cr790   2.015       .  S
O775        C776   1.266       .  A
C776        O777   1.260       .  A
C776       C1877   1.476       .  S
O777       Cr791   1.979       .  S
O778       Cr791   2.012       .  S
O778        C779   1.268       .  A
C779       C1589   1.473       .  S
O780       Cr789   1.987       .  S
O780        C788   1.260       .  A
O781       Cr789   1.968       .  S
O781        C782   1.257       .  A
C782        O783   1.269       .  A
C782       C1661   1.467       .  S
O783       Cr790   2.031       .  S
O784       Cr790   1.985       .  S
O784        C785   1.263       .  A
C785        O786   1.268       .  A
C785       C1568   1.475       .  S
O786       Cr791   2.006       .  S
O787       Cr791   1.989       .  S
O787        C788   1.259       .  A
C788       C1625   1.465       .  S
Cr789       O792   1.766       .  S
Cr790       O792   1.775       .  S
Cr791       O792   1.770       .  S
O793       Cr811   1.988       .  S
O793        C801   1.261       .  A
O794       Cr811   1.961       .  S
O794        C795   1.254       .  A
C795        O796   1.272       .  A
C795       C1514   1.469       .  S
O796       Cr812   2.042       .  S
O797       Cr812   1.995       .  S
O797        C798   1.265       .  A
C798        O799   1.271       .  A
C798       C2903   1.491       .  S
O799       Cr813   2.024       .  S
O800       Cr813   1.979       .  S
O800        C801   1.258       .  A
C801       C1532   1.459       .  S
O802       Cr811   1.972       .  S
O802        C810   1.259       .  A
O803       Cr811   2.003       .  S
O803        C804   1.262       .  A
C804        O805   1.260       .  A
C804       C1496   1.471       .  S
O805       Cr812   2.000       .  S
O806       Cr812   2.020       .  S
O806        C807   1.267       .  A
C807        O808   1.257       .  A
C807       C1481   1.473       .  S
O808       Cr813   1.968       .  S
O809       Cr813   2.020       .  S
O809        C810   1.270       .  A
C810       C1550   1.472       .  S
Cr811       O814   1.765       .  S
Cr812       O814   1.773       .  S
Cr813       O814   1.769       .  S
O815       Cr833   1.975       .  S
O815        C823   1.259       .  A
O816       Cr833   2.009       .  S
O816        C817   1.262       .  A
C817        O818   1.259       .  A
C817       C1445   1.466       .  S
O818       Cr834   1.986       .  S
O819       Cr834   2.032       .  S
O819        C820   1.270       .  A
C820        O821   1.258       .  A
C820       C1406   1.479       .  S
O821       Cr835   1.968       .  S
O822       Cr835   2.011       .  S
O822        C823   1.267       .  A
C823       C1553   1.469       .  S
O824       Cr833   2.002       .  S
O824        C832   1.265       .  A
O825       Cr833   1.954       .  S
O825        C826   1.255       .  A
C826        O827   1.274       .  A
C826       C1424   1.479       .  S
O827       Cr834   2.054       .  S
O828       Cr834   1.986       .  S
O828        C829   1.264       .  A
C829        O830   1.268       .  A
C829       C1895   1.478       .  S
O830       Cr835   2.012       .  S
O831       Cr835   1.978       .  S
O831        C832   1.259       .  A
C832       C1463   1.465       .  S
Cr833       O836   1.765       .  S
Cr834       O836   1.775       .  S
Cr835       O836   1.769       .  S
O837       Cr855   1.992       .  S
O837        C845   1.262       .  A
O838       Cr855   1.969       .  S
O838        C839   1.257       .  A
C839        O840   1.272       .  A
C839       C1391   1.476       .  S
O840       Cr856   2.043       .  S
O841       Cr856   1.996       .  S
O841        C842   1.265       .  A
C842        O843   1.267       .  A
C842       C1859   1.482       .  S
O843       Cr857   2.011       .  S
O844       Cr857   1.993       .  S
O844        C845   1.261       .  A
C845       C1460   1.469       .  S
O846       Cr855   1.969       .  S
O846        C854   1.259       .  A
O847       Cr855   2.007       .  S
O847        C848   1.262       .  A
C848        O849   1.262       .  A
C848       C1373   1.474       .  S
O849       Cr856   2.002       .  S
O850       Cr856   2.028       .  S
O850        C851   1.269       .  A
C851        O852   1.261       .  A
C851       C2864   1.486       .  S
O852       Cr857   1.984       .  S
O853       Cr857   2.011       .  S
O853        C854   1.267       .  A
C854       C1535   1.466       .  S
Cr855       O858   1.766       .  S
Cr856       O858   1.771       .  S
Cr857       O858   1.775       .  S
O859       Cr877   1.989       .  S
O859        C867   1.261       .  A
O860       Cr877   1.966       .  S
O860        C861   1.257       .  A
C861        O862   1.273       .  A
C861       C1517   1.472       .  S
O862       Cr878   2.039       .  S
O863       Cr878   1.991       .  S
O863        C864   1.262       .  A
C864        O865   1.265       .  A
C864       C1985   1.474       .  S
O865       Cr879   1.997       .  S
O866       Cr879   1.996       .  S
O866        C867   1.260       .  A
C867       C1352   1.466       .  S
O868       Cr877   1.976       .  S
O868        C876   1.261       .  A
O869       Cr877   2.004       .  S
O869        C870   1.260       .  A
C870        O871   1.260       .  A
C870       C1370   1.471       .  S
O871       Cr878   1.996       .  S
O872       Cr878   2.024       .  S
O872        C873   1.269       .  A
C873        O874   1.260       .  A
C873       C1316   1.476       .  S
O874       Cr879   1.970       .  S
O875       Cr879   2.012       .  S
O875        C876   1.267       .  A
C876       C1337   1.469       .  S
Cr877       O880   1.763       .  S
Cr878       O880   1.774       .  S
Cr879       O880   1.772       .  S
O881       Cr899   1.991       .  S
O881        C889   1.263       .  A
O882       Cr899   1.963       .  S
O882        C883   1.253       .  A
C883        O884   1.271       .  A
C883       C1388   1.472       .  S
O884       Cr900   2.042       .  S
O885       Cr900   1.985       .  S
O885        C886   1.264       .  A
C886        O887   1.270       .  A
C886       C1280   1.478       .  S
O887       Cr901   2.016       .  S
O888       Cr901   1.983       .  S
O888        C889   1.259       .  A
C889       C1334   1.463       .  S
O890       Cr899   1.968       .  S
O890        C898   1.258       .  A
O891       Cr899   2.014       .  S
O891        C892   1.265       .  A
C892        O893   1.260       .  A
C892       C1427   1.474       .  S
O893       Cr900   1.993       .  S
O894       Cr900   2.015       .  S
O894        C895   1.266       .  A
C895        O896   1.259       .  A
C895       C3047   1.471       .  S
O896       Cr901   1.974       .  S
O897       Cr901   2.017       .  S
O897        C898   1.268       .  A
C898       C1301   1.469       .  S
Cr899       O902   1.760       .  S
Cr900       O902   1.771       .  S
Cr901       O902   1.769       .  S
O903       Cr921   1.971       .  S
O903        C911   1.259       .  A
O904       Cr921   2.004       .  S
O904        C905   1.261       .  A
C905        O906   1.259       .  A
C905       C1442   1.465       .  S
O906       Cr922   1.990       .  S
O907       Cr922   2.021       .  S
O907        C908   1.268       .  A
C908        O909   1.259       .  A
C908       C2993   1.472       .  S
O909       Cr923   1.967       .  S
O910       Cr923   2.018       .  S
O910        C911   1.268       .  A
C911       C1298   1.470       .  S
O912       Cr921   1.998       .  S
O912        C920   1.265       .  A
O913       Cr921   1.949       .  S
O913        C914   1.254       .  A
C914        O915   1.271       .  A
C914       C1499   1.468       .  S
O915       Cr922   2.041       .  S
O916       Cr922   1.992       .  S
O916        C917   1.264       .  A
C917        O918   1.269       .  A
C917       C2129   1.482       .  S
O918       Cr923   2.014       .  S
O919       Cr923   1.978       .  S
O919        C920   1.259       .  A
C920       C1355   1.465       .  S
Cr921       O924   1.765       .  S
Cr922       O924   1.776       .  S
Cr923       O924   1.769       .  S
O925       Cr943   1.966       .  S
O925        C933   1.262       .  A
O926       Cr943   1.997       .  S
O926        C927   1.256       .  A
C927        O928   1.262       .  A
C927       C1244   1.475       .  S
O928       Cr944   2.014       .  S
O929       Cr944   2.018       .  S
O929        C930   1.267       .  A
C930        O931   1.260       .  A
C930       C2540   1.482       .  S
O931       Cr945   1.976       .  S
O932       Cr945   2.013       .  S
O932        C933   1.270       .  A
C933       C1265   1.464       .  S
O934       Cr943   1.987       .  S
O934        C942   1.257       .  A
O935       Cr943   1.966       .  S
O935        C936   1.260       .  A
C936        O937   1.274       .  A
C936       C1208   1.472       .  S
O937       Cr944   2.040       .  S
O938       Cr944   1.997       .  S
O938        C939   1.266       .  A
C939        O940   1.264       .  A
C939       C1607   1.475       .  S
O940       Cr945   1.988       .  S
O941       Cr945   1.995       .  S
O941        C942   1.257       .  A
C942       C1226   1.470       .  S
Cr943       O946   1.771       .  S
Cr944       O946   1.777       .  S
Cr945       O946   1.777       .  S
O947       Cr965   1.980       .  S
O947        C955   1.264       .  A
O948       Cr965   2.000       .  S
O948        C949   1.258       .  A
C949        O950   1.260       .  A
C949       C1247   1.472       .  S
O950       Cr966   2.003       .  S
O951       Cr966   2.019       .  S
O951        C952   1.267       .  A
C952        O953   1.260       .  A
C952       C1319   1.478       .  S
O953       Cr967   1.976       .  S
O954       Cr967   2.012       .  S
O954        C955   1.269       .  A
C955       C1193   1.472       .  S
O956       Cr965   1.981       .  S
O956        C964   1.257       .  A
O957       Cr965   1.966       .  S
O957        C958   1.257       .  A
C958        O959   1.274       .  A
C958       C1172   1.472       .  S
O959       Cr966   2.042       .  S
O960       Cr966   1.991       .  S
O960        C961   1.264       .  A
C961        O962   1.266       .  A
C961       C1769   1.475       .  S
O962       Cr967   1.999       .  S
O963       Cr967   1.996       .  S
O963        C964   1.260       .  A
C964       C1154   1.466       .  S
Cr965       O968   1.769       .  S
Cr966       O968   1.778       .  S
Cr967       O968   1.770       .  S
O969       Cr987   1.975       .  S
O969        C977   1.262       .  A
O970       Cr987   2.005       .  S
O970        C971   1.262       .  A
C971        O972   1.260       .  A
C971       C1136   1.473       .  S
O972       Cr988   2.001       .  S
O973       Cr988   2.015       .  S
O973        C974   1.267       .  A
C974        O975   1.260       .  A
C974       C2777   1.480       .  S
O975       Cr989   1.983       .  S
O976       Cr989   2.010       .  S
O976        C977   1.269       .  A
C977       C1118   1.469       .  S
O978       Cr987   1.985       .  S
O978        C986   1.259       .  A
O979       Cr987   1.967       .  S
O979        C980   1.256       .  A
C980        O981   1.272       .  A
C980       C1211   1.469       .  S
O981       Cr988   2.040       .  S
O982       Cr988   1.988       .  S
O982        C983   1.264       .  A
C983        O984   1.268       .  A
C983       C1283   1.477       .  S
O984       Cr989   2.009       .  S
O985       Cr989   1.999       .  S
O985        C986   1.262       .  A
C986       C1190   1.471       .  S
Cr987       O990   1.766       .  S
Cr988       O990   1.774       .  S
Cr989       O990   1.773       .  S
O991      Cr1009   1.990       .  S
O991        C999   1.259       .  A
O992      Cr1009   1.957       .  S
O992        C993   1.257       .  A
C993        O994   1.276       .  A
C993       C1100   1.475       .  S
O994      Cr1010   2.052       .  S
O995      Cr1010   1.990       .  S
O995        C996   1.264       .  A
C996        O997   1.267       .  A
C996       C1697   1.478       .  S
O997      Cr1011   2.003       .  S
O998      Cr1011   1.987       .  S
O998        C999   1.257       .  A
C999       C1157   1.466       .  S
O1000     Cr1009   1.973       .  S
O1000      C1008   1.262       .  A
O1001     Cr1009   2.001       .  S
O1001      C1002   1.258       .  A
C1002      O1003   1.259       .  A
C1002      C1085   1.469       .  S
O1003     Cr1010   1.998       .  S
O1004     Cr1010   2.024       .  S
O1004      C1005   1.269       .  A
C1005      O1006   1.261       .  A
C1005      C2684   1.486       .  S
O1006     Cr1011   1.981       .  S
O1007     Cr1011   2.018       .  S
O1007      C1008   1.271       .  A
C1008      C1121   1.471       .  S
Cr1009     O1012   1.772       .  S
Cr1010     O1012   1.777       .  S
Cr1011     O1012   1.775       .  S
O1013     Cr1031   1.986       .  S
O1013      C1021   1.260       .  A
O1014     Cr1031   1.955       .  S
O1014      C1015   1.257       .  A
C1015      O1016   1.275       .  A
C1015      C1139   1.474       .  S
O1016     Cr1032   2.050       .  S
O1017     Cr1032   1.990       .  S
O1017      C1018   1.263       .  A
C1018      O1019   1.266       .  A
C1018      C1571   1.477       .  S
O1019     Cr1033   2.002       .  S
O1020     Cr1033   2.003       .  S
O1020      C1021   1.262       .  A
C1021      C1229   1.473       .  S
O1022     Cr1031   1.974       .  S
O1022      C1030   1.262       .  A
O1023     Cr1031   1.999       .  S
O1023      C1024   1.257       .  A
C1024      O1025   1.259       .  A
C1024      C1082   1.469       .  S
O1025     Cr1032   1.999       .  S
O1026     Cr1032   2.028       .  S
O1026      C1027   1.270       .  A
C1027      O1028   1.261       .  A
C1027      C1409   1.481       .  S
O1028     Cr1033   1.973       .  S
O1029     Cr1033   2.019       .  S
O1029      C1030   1.270       .  A
C1030      C1064   1.472       .  S
Cr1031     O1034   1.765       .  S
Cr1032     O1034   1.778       .  S
Cr1033     O1034   1.772       .  S
O1035     Cr1053   1.976       .  S
O1035      C1043   1.260       .  A
O1036     Cr1053   2.009       .  S
O1036      C1037   1.264       .  A
C1037      O1038   1.260       .  A
C1037      C1103   1.473       .  S
O1038     Cr1054   1.995       .  S
O1039     Cr1054   2.017       .  S
O1039      C1040   1.267       .  A
C1040      O1041   1.258       .  A
C1040      C1478   1.472       .  S
O1041     Cr1055   1.969       .  S
O1042     Cr1055   2.019       .  S
O1042      C1043   1.268       .  A
C1043      C1067   1.475       .  S
O1044     Cr1053   1.993       .  S
O1044      C1052   1.262       .  A
O1045     Cr1053   1.964       .  S
O1045      C1046   1.255       .  A
C1046      O1047   1.271       .  A
C1046      C1175   1.473       .  S
O1047     Cr1054   2.041       .  S
O1048     Cr1054   1.992       .  S
O1048      C1049   1.264       .  A
C1049      O1050   1.269       .  A
C1049      C2507   1.483       .  S
O1050     Cr1055   2.013       .  S
O1051     Cr1055   1.970       .  S
O1051      C1052   1.257       .  A
C1052      C1262   1.457       .  S
Cr1053     O1056   1.767       .  S
Cr1054     O1056   1.776       .  S
Cr1055     O1056   1.772       .  S
C1057      C1062   1.385       .  A
C1057      C1058   1.402       .  A
C1057      N1063   1.342       .  A
C1058      C1059   1.401       .  A
C1058      H1069   1.082       .  S
C1059      C1068   1.377       .  A
C1059      C1060   1.384       .  A
C1060      C1061   1.406       .  A
C1060      N1066   1.346       .  A
C1061      C1062   1.405       .  A
C1061      H1070   1.082       .  S
C1062      C1065   1.381       .  A
N1063      C1064   1.354       .  A
N1063      H1073   1.045       .  S
C1064      C1065   1.397       .  A
C1065      H1071   1.083       .  S
N1066      C1067   1.357       .  A
N1066      H1074   1.045       .  S
C1067      C1068   1.395       .  A
C1068      H1072   1.083       .  S
C1075      C1080   1.384       .  A
C1075      C1076   1.406       .  A
C1075      N1081   1.346       .  A
C1076      C1077   1.405       .  A
C1076      H1087   1.082       .  S
C1077      C1086   1.381       .  A
C1077      C1078   1.384       .  A
C1078      C1079   1.405       .  A
C1078      N1084   1.345       .  A
C1079      C1080   1.404       .  A
C1079      H1088   1.082       .  S
C1080      C1083   1.379       .  A
N1081      C1082   1.357       .  A
N1081      H1091   1.045       .  S
C1082      C1083   1.394       .  A
C1083      H1089   1.083       .  S
N1084      C1085   1.356       .  A
N1084      H1092   1.045       .  S
C1085      C1086   1.395       .  A
C1086      H1090   1.083       .  S
C1093      C1098   1.384       .  A
C1093      C1094   1.402       .  A
C1093      N1099   1.341       .  A
C1094      C1095   1.400       .  A
C1094      H1105   1.083       .  S
C1095      C1104   1.377       .  A
C1095      C1096   1.384       .  A
C1096      C1097   1.411       .  A
C1096      N1102   1.349       .  A
C1097      C1098   1.410       .  A
C1097      H1106   1.082       .  S
C1098      C1101   1.389       .  A
N1099      C1100   1.355       .  A
N1099      H1109   1.045       .  S
C1100      C1101   1.399       .  A
C1101      H1107   1.082       .  S
N1102      C1103   1.359       .  A
N1102      H1110   1.045       .  S
C1103      C1104   1.392       .  A
C1104      H1108   1.083       .  S
C1111      C1116   1.385       .  A
C1111      C1112   1.405       .  A
C1111      N1117   1.345       .  A
C1112      C1113   1.405       .  A
C1112      H1123   1.083       .  S
C1113      C1122   1.380       .  A
C1113      C1114   1.385       .  A
C1114      C1115   1.400       .  A
C1114      N1120   1.342       .  A
C1115      C1116   1.399       .  A
C1115      H1124   1.082       .  S
C1116      C1119   1.373       .  A
N1117      C1118   1.356       .  A
N1117      H1127   1.051       .  S
C1118      C1119   1.393       .  A
C1119      H1125   1.083       .  S
N1120      C1121   1.354       .  A
N1120      H1128   1.044       .  S
C1121      C1122   1.397       .  A
C1122      H1126   1.083       .  S
C1129      C1134   1.384       .  A
C1129      C1130   1.411       .  A
C1129      N1135   1.350       .  A
C1130      C1131   1.410       .  A
C1130      H1141   1.082       .  S
C1131      C1140   1.390       .  A
C1131      C1132   1.385       .  A
C1132      C1133   1.401       .  A
C1132      N1138   1.340       .  A
C1133      C1134   1.399       .  A
C1133      H1142   1.083       .  S
C1134      C1137   1.376       .  A
N1135      C1136   1.359       .  A
N1135      H1145   1.039       .  S
C1136      C1137   1.392       .  A
C1137      H1143   1.083       .  S
N1138      C1139   1.354       .  A
N1138      H1146   1.045       .  S
C1139      C1140   1.399       .  A
C1140      H1144   1.082       .  S
C1147      C1152   1.385       .  A
C1147      C1148   1.398       .  A
C1147      N1153   1.337       .  A
C1148      C1149   1.396       .  A
C1148      H1159   1.083       .  S
C1149      C1158   1.372       .  A
C1149      C1150   1.385       .  A
C1150      C1151   1.408       .  A
C1150      N1156   1.347       .  A
C1151      C1152   1.407       .  A
C1151      H1160   1.082       .  S
C1152      C1155   1.386       .  A
N1153      C1154   1.353       .  A
N1153      H1163   1.045       .  S
C1154      C1155   1.396       .  A
C1155      H1161   1.082       .  S
N1156      C1157   1.356       .  A
N1156      H1164   1.045       .  S
C1157      C1158   1.391       .  A
C1158      H1162   1.083       .  S
C1165      C1170   1.384       .  A
C1165      C1166   1.408       .  A
C1165      N1171   1.345       .  A
C1166      C1167   1.406       .  A
C1166      H1177   1.083       .  S
C1167      C1176   1.384       .  A
C1167      C1168   1.384       .  A
C1168      C1169   1.405       .  A
C1168      N1174   1.344       .  A
C1169      C1170   1.403       .  A
C1169      H1178   1.082       .  S
C1170      C1173   1.382       .  A
N1171      C1172   1.358       .  A
N1171      H1181   1.045       .  S
C1172      C1173   1.394       .  A
C1173      H1179   1.082       .  S
N1174      C1175   1.356       .  A
N1174      H1182   1.045       .  S
C1175      C1176   1.396       .  A
C1176      H1180   1.082       .  S
C1183      C1188   1.385       .  A
C1183      C1184   1.407       .  A
C1183      N1189   1.350       .  A
C1184      C1185   1.408       .  A
C1184      H1195   1.082       .  S
C1185      C1194   1.379       .  A
C1185      C1186   1.385       .  A
C1186      C1187   1.400       .  A
C1186      N1192   1.344       .  A
C1187      C1188   1.401       .  A
C1187      H1196   1.083       .  S
C1188      C1191   1.371       .  A
N1189      C1190   1.358       .  A
N1189      H1199   1.045       .  S
C1190      C1191   1.393       .  A
C1191      H1197   1.083       .  S
N1192      C1193   1.354       .  A
N1192      H1200   1.045       .  S
C1193      C1194   1.398       .  A
C1194      H1198   1.082       .  S
C1201      C1206   1.384       .  A
C1201      C1202   1.404       .  A
C1201      N1207   1.343       .  A
C1202      C1203   1.403       .  A
C1202      H1213   1.083       .  S
C1203      C1212   1.380       .  A
C1203      C1204   1.384       .  A
C1204      C1205   1.407       .  A
C1204      N1210   1.345       .  A
C1205      C1206   1.405       .  A
C1205      H1214   1.082       .  S
C1206      C1209   1.384       .  A
N1207      C1208   1.355       .  A
N1207      H1217   1.045       .  S
C1208      C1209   1.396       .  A
C1209      H1215   1.082       .  S
N1210      C1211   1.357       .  A
N1210      H1218   1.045       .  S
C1211      C1212   1.394       .  A
C1212      H1216   1.083       .  S
C1219      C1224   1.385       .  A
C1219      C1220   1.396       .  A
C1219      N1225   1.338       .  A
C1220      C1221   1.395       .  A
C1220      H1231   1.083       .  S
C1221      C1230   1.367       .  A
C1221      C1222   1.385       .  A
C1222      C1223   1.412       .  A
C1222      N1228   1.353       .  A
C1223      C1224   1.412       .  A
C1223      H1232   1.082       .  S
C1224      C1227   1.389       .  A
N1225      C1226   1.352       .  A
N1225      H1235   1.045       .  S
C1226      C1227   1.399       .  A
C1227      H1233   1.082       .  S
N1228      C1229   1.359       .  A
N1228      H1236   1.044       .  S
C1229      C1230   1.391       .  A
C1230      H1234   1.083       .  S
C1237      C1242   1.383       .  A
C1237      C1238   1.407       .  A
C1237      N1243   1.346       .  A
C1238      C1239   1.406       .  A
C1238      H1249   1.082       .  S
C1239      C1248   1.382       .  A
C1239      C1240   1.384       .  A
C1240      C1241   1.408       .  A
C1240      N1246   1.347       .  A
C1241      C1242   1.407       .  A
C1241      H1250   1.082       .  S
C1242      C1245   1.384       .  A
N1243      C1244   1.358       .  A
N1243      H1253   1.045       .  S
C1244      C1245   1.397       .  A
C1245      H1251   1.082       .  S
N1246      C1247   1.357       .  A
N1246      H1254   1.045       .  S
C1247      C1248   1.396       .  A
C1248      H1252   1.083       .  S
C1255      C1260   1.386       .  A
C1255      C1256   1.398       .  A
C1255      N1261   1.339       .  A
C1256      C1257   1.397       .  A
C1256      H1267   1.083       .  S
C1257      C1266   1.371       .  A
C1257      C1258   1.386       .  A
C1258      C1259   1.403       .  A
C1258      N1264   1.343       .  A
C1259      C1260   1.402       .  A
C1259      H1268   1.082       .  S
C1260      C1263   1.378       .  A
N1261      C1262   1.352       .  A
N1261      H1271   1.045       .  S
C1262      C1263   1.392       .  A
C1263      H1269   1.082       .  S
N1264      C1265   1.356       .  A
N1264      H1272   1.045       .  S
C1265      C1266   1.391       .  A
C1266      H1270   1.083       .  S
C1273      C1278   1.384       .  A
C1273      C1274   1.408   1_545  A
C1273      N1279   1.347       .  A
C1274      C1275   1.407       .  A
C1274      H1285   1.082       .  S
C1275      C1284   1.385       .  A
C1275      C1276   1.384       .  A
C1276      C1277   1.403       .  A
C1276      N1282   1.342       .  A
C1277      C1278   1.401   1_565  A
C1277      H1286   1.082       .  S
C1278      C1281   1.378       .  A
N1279      C1280   1.358       .  A
N1279      H1289   1.045       .  S
C1280      C1281   1.395       .  A
C1281      H1287   1.082       .  S
N1282      C1283   1.356       .  A
N1282      H1290   1.045       .  S
C1283      C1284   1.398       .  A
C1284      H1288   1.082       .  S
C1291      C1296   1.385       .  A
C1291      C1292   1.403       .  A
C1291      N1297   1.343       .  A
C1292      C1293   1.401       .  A
C1292      H1303   1.082       .  S
C1293      C1302   1.378       .  A
C1293      C1294   1.385       .  A
C1294      C1295   1.403       .  A
C1294      N1300   1.343       .  A
C1295      C1296   1.402       .  A
C1295      H1304   1.083       .  S
C1296      C1299   1.378       .  A
N1297      C1298   1.355       .  A
N1297      H1307   1.045       .  S
C1298      C1299   1.396       .  A
C1299      H1305   1.083       .  S
N1300      C1301   1.356       .  A
N1300      H1308   1.045       .  S
C1301      C1302   1.394       .  A
C1302      H1306   1.082       .  S
C1309      C1314   1.384       .  A
C1309      C1310   1.408   1_545  A
C1309      N1315   1.348       .  A
C1310      C1311   1.408       .  A
C1310      H1321   1.082       .  S
C1311      C1320   1.385       .  A
C1311      C1312   1.384       .  A
C1312      C1313   1.402       .  A
C1312      N1318   1.342       .  A
C1313      C1314   1.401   1_565  A
C1313      H1322   1.082       .  S
C1314      C1317   1.375       .  A
N1315      C1316   1.358       .  A
N1315      H1325   1.045       .  S
C1316      C1317   1.395       .  A
C1317      H1323   1.083       .  S
N1318      C1319   1.355       .  A
N1318      H1326   1.045       .  S
C1319      C1320   1.399       .  A
C1320      H1324   1.082       .  S
C1327      C1332   1.386       .  A
C1327      C1328   1.405       .  A
C1327      N1333   1.347       .  A
C1328      C1329   1.405       .  A
C1328      H1339   1.082       .  S
C1329      C1338   1.379       .  A
C1329      C1330   1.385       .  A
C1330      C1331   1.398       .  A
C1330      N1336   1.341       .  A
C1331      C1332   1.399       .  A
C1331      H1340   1.083       .  S
C1332      C1335   1.370       .  A
N1333      C1334   1.355       .  A
N1333      H1343   1.045       .  S
C1334      C1335   1.391       .  A
C1335      H1341   1.083       .  S
N1336      C1337   1.353       .  A
N1336      H1344   1.045       .  S
C1337      C1338   1.396       .  A
C1338      H1342   1.082       .  S
C1345      C1350   1.386       .  A
C1345      C1346   1.396       .  A
C1345      N1351   1.335       .  A
C1346      C1347   1.393       .  A
C1346      H1357   1.083       .  S
C1347      C1356   1.370       .  A
C1347      C1348   1.385       .  A
C1348      C1349   1.410       .  A
C1348      N1354   1.348       .  A
C1349      C1350   1.409       .  A
C1349      H1358   1.082       .  S
C1350      C1353   1.389       .  A
N1351      C1352   1.351       .  A
N1351      H1361   1.045       .  S
C1352      C1353   1.398       .  A
C1353      H1359   1.082       .  S
N1354      C1355   1.357       .  A
N1354      H1362   1.045       .  S
C1355      C1356   1.389       .  A
C1356      H1360   1.083       .  S
C1363      C1368   1.384       .  A
C1363      C1364   1.409       .  A
C1363      N1369   1.348       .  A
C1364      C1365   1.408       .  A
C1364      H1375   1.082       .  S
C1365      C1374   1.385       .  A
C1365      C1366   1.384       .  A
C1366      C1367   1.404       .  A
C1366      N1372   1.344       .  A
C1367      C1368   1.403       .  A
C1367      H1376   1.082       .  S
C1368      C1371   1.379       .  A
N1369      C1370   1.357       .  A
N1369      H1379   1.045       .  S
C1370      C1371   1.394       .  A
C1371      H1377   1.083       .  S
N1372      C1373   1.355       .  A
N1372      H1380   1.045       .  S
C1373      C1374   1.398       .  A
C1374      H1378   1.082       .  S
C1381      C1386   1.384       .  A
C1381      C1382   1.408       .  A
C1381      N1387   1.345       .  A
C1382      C1383   1.406       .  A
C1382      H1393   1.083       .  S
C1383      C1392   1.385       .  A
C1383      C1384   1.384       .  A
C1384      C1385   1.406       .  A
C1384      N1390   1.344       .  A
C1385      C1386   1.404       .  A
C1385      H1394   1.082       .  S
C1386      C1389   1.383       .  A
N1387      C1388   1.358       .  A
N1387      H1397   1.045       .  S
C1388      C1389   1.395       .  A
C1389      H1395   1.083       .  S
N1390      C1391   1.356       .  A
N1390      H1398   1.045       .  S
C1391      C1392   1.397       .  A
C1392      H1396   1.083       .  S
C1399      C1404   1.384       .  A
C1399      C1400   1.402       .  A
C1399      N1405   1.342       .  A
C1400      C1401   1.401       .  A
C1400      H1411   1.083       .  S
C1401      C1410   1.375       .  A
C1401      C1402   1.384       .  A
C1402      C1403   1.410       .  A
C1402      N1408   1.350       .  A
C1403      C1404   1.410       .  A
C1403      H1412   1.082       .  S
C1404      C1407   1.387       .  A
N1405      C1406   1.356       .  A
N1405      H1415   1.045       .  S
C1406      C1407   1.399       .  A
C1407      H1413   1.082       .  S
N1408      C1409   1.359       .  A
N1408      H1416   1.044       .  S
C1409      C1410   1.395       .  A
C1410      H1414   1.083       .  S
C1417      C1422   1.384       .  A
C1417      C1418   1.412       .  A
C1417      N1423   1.353       .  A
C1418      C1419   1.412       .  A
C1418      H1429   1.082       .  S
C1419      C1428   1.387       .  A
C1419      C1420   1.385       .  A
C1420      C1421   1.399       .  A
C1420      N1426   1.343       .  A
C1421      C1422   1.400       .  A
C1421      H1430   1.083       .  S
C1422      C1425   1.372       .  A
N1423      C1424   1.360       .  A
N1423      H1433   1.045       .  S
C1424      C1425   1.394       .  A
C1425      H1431   1.083       .  S
N1426      C1427   1.352       .  A
N1426      H1434   1.045       .  S
C1427      C1428   1.400       .  A
C1428      H1432   1.082       .  S
C1435      C1440   1.385       .  A
C1435      C1436   1.405       .  A
C1435      N1441   1.345       .  A
C1436      C1437   1.404       .  A
C1436      H1447   1.083       .  S
C1437      C1446   1.378       .  A
C1437      C1438   1.385       .  A
C1438      C1439   1.403       .  A
C1438      N1444   1.345       .  A
C1439      C1440   1.403       .  A
C1439      H1448   1.082       .  S
C1440      C1443   1.377       .  A
N1441      C1442   1.356       .  A
N1441      H1451   1.045       .  S
C1442      C1443   1.393       .  A
C1443      H1449   1.083       .  S
N1444      C1445   1.355       .  A
N1444      H1452   1.045       .  S
C1445      C1446   1.394       .  A
C1446      H1450   1.083       .  S
C1453      C1458   1.385       .  A
C1453      C1454   1.409       .  A
C1453      N1459   1.349       .  A
C1454      C1455   1.408       .  A
C1454      H1465   1.082       .  S
C1455      C1464   1.385       .  A
C1455      C1456   1.385       .  A
C1456      C1457   1.397       .  A
C1456      N1462   1.339       .  A
C1457      C1458   1.398       .  A
C1457      H1466   1.083       .  S
C1458      C1461   1.371       .  A
N1459      C1460   1.357       .  A
N1459      H1469   1.045       .  S
C1460      C1461   1.391       .  A
C1461      H1467   1.083       .  S
N1462      C1463   1.351       .  A
N1462      H1470   1.045       .  S
C1463      C1464   1.397       .  A
C1464      H1468   1.082       .  S
C1471      C1476   1.385       .  A
C1471      C1472   1.401       .  A
C1471      N1477   1.342       .  A
C1472      C1473   1.401       .  A
C1472      H1483   1.083       .  S
C1473      C1482   1.375       .  A
C1473      C1474   1.385       .  A
C1474      C1475   1.406       .  A
C1474      N1480   1.346       .  A
C1475      C1476   1.405       .  A
C1475      H1484   1.082       .  S
C1476      C1479   1.381       .  A
N1477      C1478   1.355       .  A
N1477      H1487   1.045       .  S
C1478      C1479   1.396       .  A
C1479      H1485   1.082       .  S
N1480      C1481   1.356       .  A
N1480      H1488   1.045       .  S
C1481      C1482   1.395       .  A
C1482      H1486   1.083       .  S
C1489      C1494   1.384       .  A
C1489      C1490   1.412       .  A
C1489      N1495   1.349       .  A
C1490      C1491   1.410       .  A
C1490      H1501   1.082       .  S
C1491      C1500   1.390       .  A
C1491      C1492   1.385       .  A
C1492      C1493   1.398       .  A
C1492      N1498   1.337       .  A
C1493      C1494   1.396       .  A
C1493      H1502   1.083       .  S
C1494      C1497   1.374       .  A
N1495      C1496   1.359       .  A
N1495      H1505   1.045       .  S
C1496      C1497   1.391       .  A
C1497      H1503   1.083       .  S
N1498      C1499   1.352       .  A
N1498      H1506   1.045       .  S
C1499      C1500   1.400       .  A
C1500      H1504   1.082       .  S
C1507      C1512   1.384       .  A
C1507      C1508   1.407       .  A
C1507      N1513   1.344       .  A
C1508      C1509   1.404       .  A
C1508      H1519   1.082       .  S
C1509      C1518   1.384       .  A
C1509      C1510   1.384       .  A
C1510      C1511   1.405       .  A
C1510      N1516   1.343       .  A
C1511      C1512   1.404       .  A
C1511      H1520   1.083       .  S
C1512      C1515   1.382       .  A
N1513      C1514   1.357       .  A
N1513      H1523   1.045       .  S
C1514      C1515   1.395       .  A
C1515      H1521   1.083       .  S
N1516      C1517   1.356       .  A
N1516      H1524   1.045       .  S
C1517      C1518   1.395       .  A
C1518      H1522   1.082       .  S
C1525      C1530   1.386       .  A
C1525      C1526   1.404       .  A
C1525      N1531   1.345       .  A
C1526      C1527   1.403       .  A
C1526      H1537   1.082       .  S
C1527      C1536   1.378       .  A
C1527      C1528   1.385       .  A
C1528      C1529   1.398       .  A
C1528      N1534   1.340       .  A
C1529      C1530   1.398       .  A
C1529      H1538   1.083       .  S
C1530      C1533   1.371       .  A
N1531      C1532   1.354       .  A
N1531      H1541   1.045       .  S
C1532      C1533   1.391       .  A
C1533      H1539   1.083       .  S
N1534      C1535   1.353       .  A
N1534      H1542   1.045       .  S
C1535      C1536   1.395       .  A
C1536      H1540   1.082       .  S
C1543      C1548   1.385       .  A
C1543      C1544   1.405       .  A
C1543      N1549   1.344       .  A
C1544      C1545   1.404       .  A
C1544      H1555   1.082       .  S
C1545      C1554   1.380       .  A
C1545      C1546   1.385       .  A
C1546      C1547   1.402       .  A
C1546      N1552   1.342       .  A
C1547      C1548   1.401       .  A
C1547      H1556   1.082       .  S
C1548      C1551   1.377       .  A
N1549      C1550   1.357       .  A
N1549      H1559   1.045       .  S
C1550      C1551   1.394       .  A
C1551      H1557   1.082       .  S
N1552      C1553   1.354       .  A
N1552      H1560   1.045       .  S
C1553      C1554   1.396       .  A
C1554      H1558   1.083       .  S
C1561      C1566   1.384       .  A
C1561      C1562   1.401       .  A
C1561      N1567   1.341       .  A
C1562      C1563   1.400       .  A
C1562      H1573   1.082       .  S
C1563      C1572   1.374       .  A
C1563      C1564   1.384       .  A
C1564      C1565   1.409       .  A
C1564      N1570   1.349       .  A
C1565      C1566   1.408       .  A
C1565      H1574   1.082       .  S
C1566      C1569   1.385       .  A
N1567      C1568   1.355       .  A
N1567      H1577   1.045       .  S
C1568      C1569   1.399       .  A
C1569      H1575   1.082       .  S
N1570      C1571   1.359       .  A
N1570      H1578   1.044       .  S
C1571      C1572   1.394       .  A
C1572      H1576   1.083       .  S
C1579      C1584   1.385       .  A
C1579      C1580   1.403       .  A
C1579      N1585   1.343       .  A
C1580      C1581   1.402       .  A
C1580      H1591   1.082       .  S
C1581      C1590   1.377       .  A
C1581      C1582   1.385       .  A
C1582      C1583   1.404       .  A
C1582      N1588   1.345       .  A
C1583      C1584   1.403       .  A
C1583      H1592   1.082       .  S
C1584      C1587   1.379       .  A
N1585      C1586   1.355       .  A
N1585      H1595   1.045       .  S
C1586      C1587   1.396       .  A
C1587      H1593   1.083       .  S
N1588      C1589   1.356       .  A
N1588      H1596   1.045       .  S
C1589      C1590   1.395       .  A
C1590      H1594   1.083       .  S
C1597      C1602   1.385       .  A
C1597      C1598   1.401       .  A
C1597      N1603   1.342       .  A
C1598      C1599   1.401       .  A
C1598      H1609   1.083       .  S
C1599      C1608   1.374       .  A
C1599      C1600   1.385       .  A
C1600      C1601   1.407       .  A
C1600      N1606   1.348       .  A
C1601      C1602   1.406       .  A
C1601      H1610   1.082       .  S
C1602      C1605   1.382       .  A
N1603      C1604   1.355       .  A
N1603      H1613   1.045       .  S
C1604      C1605   1.397       .  A
C1605      H1611   1.082       .  S
N1606      C1607   1.357       .  A
N1606      H1614   1.044       .  S
C1607      C1608   1.395       .  A
C1608      H1612   1.083       .  S
C1615      C1620   1.385       .  A
C1615      C1616   1.399       .  A
C1615      N1621   1.342       .  A
C1616      C1617   1.399       .  A
C1616      H1627   1.083       .  S
C1617      C1626   1.371       .  A
C1617      C1618   1.386       .  A
C1618      C1619   1.405       .  A
C1618      N1624   1.348       .  A
C1619      C1620   1.406       .  A
C1619      H1628   1.082       .  S
C1620      C1623   1.379       .  A
N1621      C1622   1.353       .  A
N1621      H1631   1.045       .  S
C1622      C1623   1.396       .  A
C1623      H1629   1.082       .  S
N1624      C1625   1.356       .  A
N1624      H1632   1.045       .  S
C1625      C1626   1.392       .  A
C1626      H1630   1.083       .  S
C1633      C1638   1.384       .  A
C1633      C1634   1.411       .  A
C1633      N1639   1.350       .  A
C1634      C1635   1.411       .  A
C1634      H1645   1.082       .  S
C1635      C1644   1.389       .  A
C1635      C1636   1.385       .  A
C1636      C1637   1.395       .  A
C1636      N1642   1.335       .  A
C1637      C1638   1.393       .  A
C1637      H1646   1.083       .  S
C1638      C1641   1.368       .  A
N1639      C1640   1.358       .  A
N1639      H1649   1.044       .  S
C1640      C1641   1.389       .  A
C1641      H1647   1.083       .  S
N1642      C1643   1.351       .  A
N1642      H1650   1.045       .  S
C1643      C1644   1.399       .  A
C1644      H1648   1.082       .  S
C1651      C1656   1.385       .  A
C1651      C1652   1.404       .  A
C1651      N1657   1.343       .  A
C1652      C1653   1.402       .  A
C1652      H1663   1.083       .  S
C1653      C1662   1.381       .  A
C1653      C1654   1.385       .  A
C1654      C1655   1.405       .  A
C1654      N1660   1.343       .  A
C1655      C1656   1.403       .  A
C1655      H1664   1.083       .  S
C1656      C1659   1.382       .  A
N1657      C1658   1.355       .  A
N1657      H1667   1.045       .  S
C1658      C1659   1.395       .  A
C1659      H1665   1.083       .  S
N1660      C1661   1.355       .  A
N1660      H1668   1.045       .  S
C1661      C1662   1.394       .  A
C1662      H1666   1.083       .  S
C1669      C1674   1.384       .  A
C1669      C1670   1.404       .  A
C1669      N1675   1.345       .  A
C1670      C1671   1.403       .  A
C1670      H1681   1.082       .  S
C1671      C1680   1.378       .  A
C1671      C1672   1.384       .  A
C1672      C1673   1.405       .  A
C1672      N1678   1.346       .  A
C1673      C1674   1.405       .  A
C1673      H1682   1.083       .  S
C1674      C1677   1.379       .  A
N1675      C1676   1.355       .  A
N1675      H1685   1.045       .  S
C1676      C1677   1.396       .  A
C1677      H1683   1.083       .  S
N1678      C1679   1.356       .  A
N1678      H1686   1.045       .  S
C1679      C1680   1.394       .  A
C1680      H1684   1.082       .  S
C1687      C1692   1.384       .  A
C1687      C1688   1.409   1_655  A
C1687      N1693   1.349       .  A
C1688      C1689   1.409       .  A
C1688      H1699   1.082       .  S
C1689      C1698   1.385       .  A
C1689      C1690   1.384       .  A
C1690      C1691   1.402       .  A
C1690      N1696   1.343       .  A
C1691      C1692   1.402   1_455  A
C1691      H1700   1.082       .  S
C1692      C1695   1.376       .  A
N1693      C1694   1.358       .  A
N1693      H1703   1.044       .  S
C1694      C1695   1.395       .  A
C1695      H1701   1.083       .  S
N1696      C1697   1.356       .  A
N1696      H1704   1.045       .  S
C1697      C1698   1.398       .  A
C1698      H1702   1.082       .  S
C1705      C1710   1.385       .  A
C1705      C1706   1.398       .  A
C1705      N1711   1.340       .  A
C1706      C1707   1.398       .  A
C1706      H1717   1.083       .  S
C1707      C1716   1.371       .  A
C1707      C1708   1.385       .  A
C1708      C1709   1.409       .  A
C1708      N1714   1.350       .  A
C1709      C1710   1.408       .  A
C1709      H1718   1.082       .  S
C1710      C1713   1.385       .  A
N1711      C1712   1.352       .  A
N1711      H1721   1.045       .  S
C1712      C1713   1.397       .  A
C1713      H1719   1.082       .  S
N1714      C1715   1.357       .  A
N1714      H1722   1.044       .  S
C1715      C1716   1.392       .  A
C1716      H1720   1.083       .  S
C1723      C1728   1.385       .  A
C1723      C1724   1.407       .  A
C1723      N1729   1.350       .  A
C1724      C1725   1.407       .  A
C1724      H1735   1.082       .  S
C1725      C1734   1.382       .  A
C1725      C1726   1.385       .  A
C1726      C1727   1.400       .  A
C1726      N1732   1.342       .  A
C1727      C1728   1.400       .  A
C1727      H1736   1.083       .  S
C1728      C1731   1.371       .  A
N1729      C1730   1.357       .  A
N1729      H1739   1.045       .  S
C1730      C1731   1.394       .  A
C1731      H1737   1.083       .  S
N1732      C1733   1.354       .  A
N1732      H1740   1.045       .  S
C1733      C1734   1.395       .  A
C1734      H1738   1.082       .  S
C1741      C1746   1.385       .  A
C1741      C1742   1.405       .  A
C1741      N1747   1.345       .  A
C1742      C1743   1.404       .  A
C1742      H1753   1.083       .  S
C1743      C1752   1.379       .  A
C1743      C1744   1.385       .  A
C1744      C1745   1.402       .  A
C1744      N1750   1.344       .  A
C1745      C1746   1.402       .  A
C1745      H1754   1.082       .  S
C1746      C1749   1.377       .  A
N1747      C1748   1.355       .  A
N1747      H1757   1.045       .  S
C1748      C1749   1.392       .  A
C1749      H1755   1.083       .  S
N1750      C1751   1.353       .  A
N1750      H1758   1.045       .  S
C1751      C1752   1.394       .  A
C1752      H1756   1.083       .  S
C1759      C1764   1.385       .  A
C1759      C1760   1.400   1_655  A
C1759      N1765   1.342       .  A
C1760      C1761   1.400       .  A
C1760      H1771   1.082   1_455  S
C1761      C1770   1.373       .  A
C1761      C1762   1.384       .  A
C1762      C1763   1.409       .  A
C1762      N1768   1.350       .  A
C1763      C1764   1.409   1_455  A
C1763      H1772   1.082       .  S
C1764      C1767   1.384       .  A
N1765      C1766   1.354       .  A
N1765      H1775   1.045       .  S
C1766      C1767   1.399       .  A
C1767      H1773   1.082       .  S
N1768      C1769   1.359       .  A
N1768      H1776   1.044       .  S
C1769      C1770   1.393       .  A
C1770      H1774   1.083       .  S
C1777      C1782   1.385       .  A
C1777      C1778   1.402       .  A
C1777      N1783   1.343       .  A
C1778      C1779   1.401       .  A
C1778      H1789   1.082       .  S
C1779      C1788   1.376       .  A
C1779      C1780   1.385       .  A
C1780      C1781   1.404       .  A
C1780      N1786   1.345       .  A
C1781      C1782   1.404       .  A
C1781      H1790   1.082       .  S
C1782      C1785   1.378       .  A
N1783      C1784   1.355       .  A
N1783      H1793   1.045       .  S
C1784      C1785   1.396       .  A
C1785      H1791   1.083       .  S
N1786      C1787   1.357       .  A
N1786      H1794   1.045       .  S
C1787      C1788   1.394       .  A
C1788      H1792   1.082       .  S
C1795      C1800   1.385       .  A
C1795      C1796   1.407       .  A
C1795      N1801   1.346       .  A
C1796      C1797   1.406       .  A
C1796      H1807   1.082       .  S
C1797      C1806   1.383       .  A
C1797      C1798   1.385       .  A
C1798      C1799   1.400       .  A
C1798      N1804   1.341       .  A
C1799      C1800   1.399       .  A
C1799      H1808   1.083       .  S
C1800      C1803   1.374       .  A
N1801      C1802   1.357       .  A
N1801      H1811   1.045       .  S
C1802      C1803   1.393       .  A
C1803      H1809   1.083       .  S
N1804      C1805   1.353       .  A
N1804      H1812   1.045       .  S
C1805      C1806   1.395       .  A
C1806      H1810   1.082       .  S
C1813      C1818   1.385       .  A
C1813      C1814   1.402       .  A
C1813      N1819   1.340       .  A
C1814      C1815   1.400       .  A
C1814      H1825   1.083       .  S
C1815      C1824   1.380       .  A
C1815      C1816   1.385       .  A
C1816      C1817   1.404       .  A
C1816      N1822   1.341       .  A
C1817      C1818   1.402       .  A
C1817      H1826   1.083       .  S
C1818      C1821   1.381       .  A
N1819      C1820   1.353       .  A
N1819      H1829   1.045       .  S
C1820      C1821   1.394       .  A
C1821      H1827   1.083       .  S
N1822      C1823   1.355       .  A
N1822      H1830   1.045       .  S
C1823      C1824   1.393       .  A
C1824      H1828   1.083       .  S
C1831      C1836   1.384       .  A
C1831      C1832   1.409       .  A
C1831      N1837   1.349       .  A
C1832      C1833   1.409       .  A
C1832      H1843   1.082       .  S
C1833      C1842   1.387       .  A
C1833      C1834   1.384       .  A
C1834      C1835   1.403       .  A
C1834      N1840   1.342       .  A
C1835      C1836   1.401       .  A
C1835      H1844   1.083       .  S
C1836      C1839   1.377       .  A
N1837      C1838   1.358       .  A
N1837      H1847   1.045       .  S
C1838      C1839   1.394       .  A
C1839      H1845   1.083       .  S
N1840      C1841   1.355       .  A
N1840      H1848   1.045       .  S
C1841      C1842   1.398       .  A
C1842      H1846   1.082       .  S
C1849      C1854   1.384       .  A
C1849      C1850   1.411       .  A
C1849      N1855   1.351       .  A
C1850      C1851   1.410       .  A
C1850      H1861   1.082       .  S
C1851      C1860   1.387       .  A
C1851      C1852   1.384       .  A
C1852      C1853   1.404       .  A
C1852      N1858   1.344       .  A
C1853      C1854   1.403       .  A
C1853      H1862   1.082       .  S
C1854      C1857   1.378       .  A
N1855      C1856   1.360       .  A
N1855      H1865   1.044       .  S
C1856      C1857   1.396       .  A
C1857      H1863   1.082       .  S
N1858      C1859   1.357       .  A
N1858      H1866   1.045       .  S
C1859      C1860   1.399       .  A
C1860      H1864   1.082       .  S
C1867      C1872   1.384       .  A
C1867      C1868   1.408       .  A
C1867      N1873   1.348       .  A
C1868      C1869   1.408       .  A
C1868      H1879   1.082       .  S
C1869      C1878   1.383       .  A
C1869      C1870   1.384       .  A
C1870      C1871   1.402       .  A
C1870      N1876   1.343       .  A
C1871      C1872   1.401       .  A
C1871      H1880   1.082       .  S
C1872      C1875   1.375       .  A
N1873      C1874   1.358       .  A
N1873      H1883   1.045       .  S
C1874      C1875   1.395       .  A
C1875      H1881   1.083       .  S
N1876      C1877   1.355       .  A
N1876      H1884   1.045       .  S
C1877      C1878   1.399       .  A
C1878      H1882   1.082       .  S
C1885      C1890   1.384       .  A
C1885      C1886   1.408       .  A
C1885      N1891   1.348       .  A
C1886      C1887   1.407       .  A
C1886      H1897   1.082       .  S
C1887      C1896   1.383       .  A
C1887      C1888   1.384       .  A
C1888      C1889   1.404       .  A
C1888      N1894   1.344       .  A
C1889      C1890   1.404       .  A
C1889      H1898   1.082       .  S
C1890      C1893   1.379       .  A
N1891      C1892   1.358       .  A
N1891      H1901   1.045       .  S
C1892      C1893   1.397       .  A
C1893      H1899   1.082       .  S
N1894      C1895   1.357       .  A
N1894      H1902   1.045       .  S
C1895      C1896   1.398       .  A
C1896      H1900   1.082       .  S
C1903      C1908   1.386       .  A
C1903      C1904   1.396       .  A
C1903      N1909   1.337       .  A
C1904      C1905   1.395       .  A
C1904      H1915   1.083       .  S
C1905      C1914   1.368       .  A
C1905      C1906   1.386       .  A
C1906      C1907   1.405       .  A
C1906      N1912   1.345       .  A
C1907      C1908   1.404       .  A
C1907      H1916   1.082       .  S
C1908      C1911   1.380       .  A
N1909      C1910   1.351       .  A
N1909      H1919   1.045       .  S
C1910      C1911   1.393       .  A
C1911      H1917   1.082       .  S
N1912      C1913   1.355       .  A
N1912      H1920   1.045       .  S
C1913      C1914   1.388       .  A
C1914      H1918   1.083       .  S
C1921      C1926   1.384       .  A
C1921      C1922   1.403   1_545  A
C1921      N1927   1.344       .  A
C1922      C1923   1.403       .  A
C1922      H1933   1.082       .  S
C1923      C1932   1.377       .  A
C1923      C1924   1.383       .  A
C1924      C1925   1.411       .  A
C1924      N1930   1.351       .  A
C1925      C1926   1.411   1_565  A
C1925      H1934   1.082       .  S
C1926      C1929   1.387       .  A
N1927      C1928   1.356       .  A
N1927      H1937   1.045       .  S
C1928      C1929   1.400       .  A
C1929      H1935   1.082       .  S
N1930      C1931   1.360       .  A
N1930      H1938   1.044       .  S
C1931      C1932   1.396       .  A
C1932      H1936   1.082       .  S
C1939      C1944   1.385       .  A
C1939      C1940   1.409       .  A
C1939      N1945   1.349       .  A
C1940      C1941   1.409       .  A
C1940      H1951   1.082       .  S
C1941      C1950   1.387       .  A
C1941      C1942   1.385       .  A
C1942      C1943   1.398       .  A
C1942      N1948   1.339       .  A
C1943      C1944   1.397       .  A
C1943      H1952   1.083       .  S
C1944      C1947   1.370       .  A
N1945      C1946   1.356       .  A
N1945      H1955   1.045       .  S
C1946      C1947   1.392       .  A
C1947      H1953   1.083       .  S
N1948      C1949   1.354       .  A
N1948      H1956   1.045       .  S
C1949      C1950   1.398       .  A
C1950      H1954   1.082       .  S
C1957      C1962   1.384       .  A
C1957      C1958   1.406       .  A
C1957      N1963   1.344       .  A
C1958      C1959   1.404       .  A
C1958      H1969   1.082       .  S
C1959      C1968   1.382       .  A
C1959      C1960   1.384       .  A
C1960      C1961   1.405       .  A
C1960      N1966   1.344       .  A
C1961      C1962   1.404       .  A
C1961      H1970   1.082       .  S
C1962      C1965   1.381       .  A
N1963      C1964   1.356       .  A
N1963      H1973   1.045       .  S
C1964      C1965   1.394       .  A
C1965      H1971   1.083       .  S
N1966      C1967   1.356       .  A
N1966      H1974   1.045       .  S
C1967      C1968   1.395       .  A
C1968      H1972   1.082       .  S
C1975      C1980   1.385       .  A
C1975      C1976   1.399   1_655  A
C1975      N1981   1.341       .  A
C1976      C1977   1.399       .  A
C1976      H1987   1.083       .  S
C1977      C1986   1.371       .  A
C1977      C1978   1.384       .  A
C1978      C1979   1.408       .  A
C1978      N1984   1.348       .  A
C1979      C1980   1.408   1_455  A
C1979      H1988   1.082       .  S
C1980      C1983   1.383       .  A
N1981      C1982   1.354       .  A
N1981      H1991   1.045       .  S
C1982      C1983   1.398       .  A
C1983      H1989   1.082       .  S
N1984      C1985   1.358       .  A
N1984      H1992   1.045       .  S
C1985      C1986   1.393       .  A
C1986      H1990   1.083       .  S
C1993      C1998   1.384       .  A
C1993      C1994   1.404       .  A
C1993      N1999   1.344       .  A
C1994      C1995   1.403   1_565  A
C1994      H2005   1.082       .  S
C1995      C2004   1.379       .  A
C1995      C1996   1.384       .  A
C1996      C1997   1.411   1_545  A
C1996      N2002   1.350       .  A
C1997      C1998   1.410       .  A
C1997      H2006   1.082       .  S
C1998      C2001   1.388       .  A
N1999      C2000   1.356       .  A
N1999      H2009   1.045       .  S
C2000      C2001   1.400       .  A
C2001      H2007   1.082       .  S
N2002      C2003   1.359       .  A
N2002      H2010   1.044       .  S
C2003      C2004   1.396       .  A
C2004      H2008   1.082       .  S
C2011      C2016   1.385       .  A
C2011      C2012   1.402       .  A
C2011      N2017   1.342       .  A
C2012      C2013   1.401       .  A
C2012      H2023   1.082       .  S
C2013      C2022   1.376       .  A
C2013      C2014   1.385       .  A
C2014      C2015   1.404       .  A
C2014      N2020   1.343       .  A
C2015      C2016   1.403       .  A
C2015      H2024   1.082       .  S
C2016      C2019   1.379       .  A
N2017      C2018   1.355       .  A
N2017      H2027   1.045       .  S
C2018      C2019   1.396       .  A
C2019      H2025   1.082       .  S
N2020      C2021   1.356       .  A
N2020      H2028   1.045       .  S
C2021      C2022   1.394       .  A
C2022      H2026   1.083       .  S
C2029      C2034   1.385       .  A
C2029      C2030   1.406       .  A
C2029      N2035   1.346       .  A
C2030      C2031   1.405       .  A
C2030      H2041   1.082       .  S
C2031      C2040   1.382       .  A
C2031      C2032   1.385       .  A
C2032      C2033   1.405       .  A
C2032      N2038   1.344       .  A
C2033      C2034   1.404       .  A
C2033      H2042   1.083       .  S
C2034      C2037   1.381       .  A
N2035      C2036   1.356       .  A
N2035      H2045   1.045       .  S
C2036      C2037   1.396       .  A
C2037      H2043   1.083       .  S
N2038      C2039   1.355       .  A
N2038      H2046   1.045       .  S
C2039      C2040   1.395       .  A
C2040      H2044   1.082       .  S
C2047      C2052   1.384       .  A
C2047      C2048   1.402       .  A
C2047      N2053   1.343       .  A
C2048      C2049   1.401       .  A
C2048      H2059   1.082       .  S
C2049      C2058   1.375       .  A
C2049      C2050   1.384       .  A
C2050      C2051   1.411       .  A
C2050      N2056   1.351       .  A
C2051      C2052   1.411       .  A
C2051      H2060   1.082       .  S
C2052      C2055   1.388       .  A
N2053      C2054   1.355       .  A
N2053      H2063   1.045       .  S
C2054      C2055   1.401       .  A
C2055      H2061   1.082       .  S
N2056      C2057   1.360       .  A
N2056      H2064   1.044       .  S
C2057      C2058   1.395       .  A
C2058      H2062   1.083       .  S
C2065      C2070   1.385       .  A
C2065      C2066   1.404       .  A
C2065      N2071   1.346       .  A
C2066      C2067   1.404       .  A
C2066      H2077   1.082       .  S
C2067      C2076   1.378       .  A
C2067      C2068   1.384       .  A
C2068      C2069   1.406       .  A
C2068      N2074   1.348       .  A
C2069      C2070   1.406       .  A
C2069      H2078   1.082       .  S
C2070      C2073   1.380       .  A
N2071      C2072   1.356       .  A
N2071      H2081   1.045       .  S
C2072      C2073   1.398       .  A
C2073      H2079   1.083       .  S
N2074      C2075   1.358       .  A
N2074      H2082   1.045       .  S
C2075      C2076   1.396       .  A
C2076      H2080   1.082       .  S
C2083      C2088   1.385       .  A
C2083      C2084   1.407       .  A
C2083      N2089   1.349       .  A
C2084      C2085   1.407       .  A
C2084      H2095   1.082       .  S
C2085      C2094   1.383       .  A
C2085      C2086   1.385       .  A
C2086      C2087   1.404       .  A
C2086      N2092   1.346       .  A
C2087      C2088   1.404       .  A
C2087      H2096   1.083       .  S
C2088      C2091   1.378       .  A
N2089      C2090   1.356       .  A
N2089      H2099   1.045       .  S
C2090      C2091   1.397       .  A
C2091      H2097   1.083       .  S
N2092      C2093   1.355       .  A
N2092      H2100   1.045       .  S
C2093      C2094   1.398       .  A
C2094      H2098   1.083       .  S
C2101      C2106   1.385       .  A
C2101      C2102   1.407       .  A
C2101      N2107   1.349       .  A
C2102      C2103   1.407       .  A
C2102      H2113   1.082       .  S
C2103      C2112   1.381       .  A
C2103      C2104   1.385       .  A
C2104      C2105   1.400       .  A
C2104      N2110   1.343       .  A
C2105      C2106   1.401       .  A
C2105      H2114   1.083       .  S
C2106      C2109   1.373       .  A
N2107      C2108   1.356       .  A
N2107      H2117   1.045       .  S
C2108      C2109   1.393       .  A
C2109      H2115   1.083       .  S
N2110      C2111   1.354       .  A
N2110      H2118   1.045       .  S
C2111      C2112   1.397       .  A
C2112      H2116   1.082       .  S
C2119      C2124   1.384       .  A
C2119      C2120   1.410   1_655  A
C2119      N2125   1.351       .  A
C2120      C2121   1.410       .  A
C2120      H2131   1.082       .  S
C2121      C2130   1.387       .  A
C2121      C2122   1.384       .  A
C2122      C2123   1.403       .  A
C2122      N2128   1.344       .  A
C2123      C2124   1.402   1_455  A
C2123      H2132   1.082       .  S
C2124      C2127   1.376       .  A
N2125      C2126   1.359       .  A
N2125      H2135   1.044       .  S
C2126      C2127   1.396       .  A
C2127      H2133   1.083       .  S
N2128      C2129   1.356       .  A
N2128      H2136   1.045       .  S
C2129      C2130   1.400       .  A
C2130      H2134   1.082       .  S
C2137      C2142   1.384       .  A
C2137      C2138   1.407       .  A
C2137      N2143   1.346       .  A
C2138      C2139   1.406       .  A
C2138      H2149   1.082       .  S
C2139      C2148   1.384       .  A
C2139      C2140   1.385       .  A
C2140      C2141   1.399       .  A
C2140      N2146   1.338       .  A
C2141      C2142   1.397       .  A
C2141      H2150   1.083       .  S
C2142      C2145   1.372       .  A
N2143      C2144   1.357       .  A
N2143      H2153   1.045       .  S
C2144      C2145   1.392       .  A
C2145      H2151   1.083       .  S
N2146      C2147   1.353       .  A
N2146      H2154   1.045       .  S
C2147      C2148   1.396       .  A
C2148      H2152   1.082       .  S
C2155      C2160   1.386       .  A
C2155      C2156   1.395       .  A
C2155      N2161   1.336       .  A
C2156      C2157   1.394       .  A
C2156      H2167   1.083       .  S
C2157      C2166   1.366       .  A
C2157      C2158   1.385       .  A
C2158      C2159   1.409       .  A
C2158      N2164   1.349       .  A
C2159      C2160   1.408       .  A
C2159      H2168   1.082       .  S
C2160      C2163   1.385       .  A
N2161      C2162   1.351       .  A
N2161      H2171   1.045       .  S
C2162      C2163   1.396       .  A
C2163      H2169   1.082       .  S
N2164      C2165   1.357       .  A
N2164      H2172   1.045       .  S
C2165      C2166   1.389       .  A
C2166      H2170   1.083       .  S
C2173      C2178   1.384       .  A
C2173      C2174   1.410       .  A
C2173      N2179   1.351       .  A
C2174      C2175   1.410       .  A
C2174      H2185   1.082       .  S
C2175      C2184   1.387       .  A
C2175      C2176   1.385       .  A
C2176      C2177   1.400       .  A
C2176      N2182   1.342       .  A
C2177      C2178   1.399       .  A
C2177      H2186   1.083       .  S
C2178      C2181   1.372       .  A
N2179      C2180   1.358       .  A
N2179      H2189   1.045       .  S
C2180      C2181   1.394       .  A
C2181      H2187   1.083       .  S
N2182      C2183   1.353       .  A
N2182      H2190   1.045       .  S
C2183      C2184   1.399       .  A
C2184      H2188   1.082       .  S
C2191      C2196   1.384       .  A
C2191      C2192   1.409       .  A
C2191      N2197   1.348       .  A
C2192      C2193   1.408       .  A
C2192      H2203   1.082       .  S
C2193      C2202   1.385       .  A
C2193      C2194   1.384       .  A
C2194      C2195   1.405       .  A
C2194      N2200   1.344       .  A
C2195      C2196   1.404       .  A
C2195      H2204   1.083       .  S
C2196      C2199   1.380       .  A
N2197      C2198   1.357       .  A
N2197      H2207   1.045       .  S
C2198      C2199   1.396       .  A
C2199      H2205   1.083       .  S
N2200      C2201   1.355       .  A
N2200      H2208   1.045       .  S
C2201      C2202   1.397       .  A
C2202      H2206   1.082       .  S
C2209      C2214   1.384       .  A
C2209      C2210   1.401       .  A
C2209      N2215   1.341       .  A
C2210      C2211   1.400       .  A
C2210      H2221   1.083       .  S
C2211      C2220   1.375       .  A
C2211      C2212   1.384       .  A
C2212      C2213   1.409       .  A
C2212      N2218   1.349       .  A
C2213      C2214   1.409       .  A
C2213      H2222   1.082       .  S
C2214      C2217   1.386       .  A
N2215      C2216   1.354       .  A
N2215      H2225   1.045       .  S
C2216      C2217   1.398       .  A
C2217      H2223   1.082       .  S
N2218      C2219   1.358       .  A
N2218      H2226   1.044       .  S
C2219      C2220   1.395       .  A
C2220      H2224   1.083       .  S
C2227      C2232   1.385       .  A
C2227      C2228   1.405       .  A
C2227      N2233   1.342       .  A
C2228      C2229   1.403       .  A
C2228      H2239   1.082       .  S
C2229      C2238   1.383       .  A
C2229      C2230   1.385       .  A
C2230      C2231   1.402       .  A
C2230      N2236   1.339       .  A
C2231      C2232   1.400       .  A
C2231      H2240   1.083       .  S
C2232      C2235   1.378       .  A
N2233      C2234   1.356       .  A
N2233      H2243   1.045       .  S
C2234      C2235   1.394       .  A
C2235      H2241   1.083       .  S
N2236      C2237   1.354       .  A
N2236      H2244   1.045       .  S
C2237      C2238   1.395       .  A
C2238      H2242   1.082       .  S
C2245      C2250   1.384       .  A
C2245      C2246   1.400       .  A
C2245      N2251   1.339       .  A
C2246      C2247   1.398       .  A
C2246      H2257   1.082       .  S
C2247      C2256   1.375       .  A
C2247      C2248   1.384       .  A
C2248      C2249   1.409       .  A
C2248      N2254   1.346       .  A
C2249      C2250   1.407       .  A
C2249      H2258   1.082       .  S
C2250      C2253   1.386       .  A
N2251      C2252   1.354       .  A
N2251      H2261   1.045       .  S
C2252      C2253   1.399       .  A
C2253      H2259   1.082       .  S
N2254      C2255   1.358       .  A
N2254      H2262   1.045       .  S
C2255      C2256   1.393       .  A
C2256      H2260   1.082       .  S
C2263      C2268   1.385       .  A
C2263      C2264   1.402       .  A
C2263      N2269   1.339       .  A
C2264      C2265   1.399       .  A
C2264      H2275   1.083       .  S
C2265      C2274   1.379       .  A
C2265      C2266   1.384       .  A
C2266      C2267   1.406       .  A
C2266      N2272   1.343       .  A
C2267      C2268   1.405       .  A
C2267      H2276   1.082       .  S
C2268      C2271   1.385       .  A
N2269      C2270   1.354       .  A
N2269      H2279   1.045       .  S
C2270      C2271   1.396       .  A
C2271      H2277   1.082       .  S
N2272      C2273   1.357       .  A
N2272      H2280   1.045       .  S
C2273      C2274   1.394       .  A
C2274      H2278   1.083       .  S
C2281      C2286   1.385       .  A
C2281      C2282   1.397       .  A
C2281      N2287   1.339       .  A
C2282      C2283   1.397       .  A
C2282      H2293   1.083       .  S
C2283      C2292   1.369       .  A
C2283      C2284   1.386       .  A
C2284      C2285   1.404       .  A
C2284      N2290   1.346       .  A
C2285      C2286   1.404       .  A
C2285      H2294   1.082       .  S
C2286      C2289   1.379       .  A
N2287      C2288   1.353       .  A
N2287      H2297   1.045       .  S
C2288      C2289   1.396       .  A
C2289      H2295   1.082       .  S
N2290      C2291   1.354       .  A
N2290      H2298   1.045       .  S
C2291      C2292   1.391       .  A
C2292      H2296   1.083       .  S
C2299      C2304   1.384       .  A
C2299      C2300   1.402       .  A
C2299      N2305   1.344       .  A
C2300      C2301   1.401   1_556  A
C2300      H2311   1.082       .  S
C2301      C2310   1.374       .  A
C2301      C2302   1.384       .  A
C2302      C2303   1.410       .  A
C2302      N2308   1.351       .  A
C2303      C2304   1.411   1_554  A
C2303      H2312   1.082       .  S
C2304      C2307   1.386       .  A
N2305      C2306   1.356       .  A
N2305      H2315   1.045       .  S
C2306      C2307   1.400       .  A
C2307      H2313   1.082       .  S
N2308      C2309   1.360       .  A
N2308      H2316   1.045       .  S
C2309      C2310   1.394       .  A
C2310      H2314   1.082       .  S
C2317      C2322   1.384       .  A
C2317      C2318   1.411       .  A
C2317      N2323   1.349       .  A
C2318      C2319   1.410       .  A
C2318      H2329   1.082       .  S
C2319      C2328   1.390       .  A
C2319      C2320   1.384       .  A
C2320      C2321   1.402       .  A
C2320      N2326   1.340       .  A
C2321      C2322   1.400       .  A
C2321      H2330   1.083       .  S
C2322      C2325   1.377       .  A
N2323      C2324   1.358       .  A
N2323      H2333   1.045       .  S
C2324      C2325   1.394       .  A
C2325      H2331   1.083       .  S
N2326      C2327   1.355       .  A
N2326      H2334   1.045       .  S
C2327      C2328   1.399       .  A
C2328      H2332   1.082       .  S
C2335      C2340   1.384       .  A
C2335      C2336   1.410       .  A
C2335      N2341   1.351       .  A
C2336      C2337   1.410       .  A
C2336      H2347   1.082       .  S
C2337      C2346   1.386       .  A
C2337      C2338   1.385       .  A
C2338      C2339   1.401       .  A
C2338      N2344   1.342       .  A
C2339      C2340   1.400       .  A
C2339      H2348   1.083       .  S
C2340      C2343   1.373       .  A
N2341      C2342   1.358       .  A
N2341      H2351   1.045       .  S
C2342      C2343   1.394       .  A
C2343      H2349   1.083       .  S
N2344      C2345   1.354       .  A
N2344      H2352   1.045       .  S
C2345      C2346   1.398       .  A
C2346      H2350   1.082       .  S
C2353      C2358   1.384       .  A
C2353      C2354   1.411   1_556  A
C2353      N2359   1.350       .  A
C2354      C2355   1.411       .  A
C2354      H2365   1.082       .  S
C2355      C2364   1.388       .  A
C2355      C2356   1.385       .  A
C2356      C2357   1.397       .  A
C2356      N2362   1.338       .  A
C2357      C2358   1.396   1_554  A
C2357      H2366   1.082       .  S
C2358      C2361   1.371       .  A
N2359      C2360   1.359       .  A
N2359      H2369   1.044       .  S
C2360      C2361   1.392       .  A
C2361      H2367   1.083       .  S
N2362      C2363   1.352       .  A
N2362      H2370   1.045       .  S
C2363      C2364   1.401       .  A
C2364      H2368   1.082       .  S
C2371      C2376   1.384       .  A
C2371      C2372   1.402       .  A
C2371      N2377   1.341       .  A
C2372      C2373   1.401       .  A
C2372      H2383   1.083       .  S
C2373      C2382   1.377       .  A
C2373      C2374   1.384       .  A
C2374      C2375   1.410       .  A
C2374      N2380   1.349       .  A
C2375      C2376   1.409       .  A
C2375      H2384   1.082       .  S
C2376      C2379   1.387       .  A
N2377      C2378   1.355       .  A
N2377      H2387   1.045       .  S
C2378      C2379   1.398       .  A
C2379      H2385   1.082       .  S
N2380      C2381   1.358       .  A
N2380      H2388   1.045       .  S
C2381      C2382   1.394       .  A
C2382      H2386   1.083       .  S
C2389      C2394   1.384       .  A
C2389      C2390   1.410       .  A
C2389      N2395   1.348       .  A
C2390      C2391   1.409       .  A
C2390      H2401   1.082       .  S
C2391      C2400   1.388       .  A
C2391      C2392   1.385       .  A
C2392      C2393   1.401       .  A
C2392      N2398   1.339       .  A
C2393      C2394   1.398       .  A
C2393      H2402   1.083       .  S
C2394      C2397   1.376       .  A
N2395      C2396   1.357       .  A
N2395      H2405   1.045       .  S
C2396      C2397   1.392       .  A
C2397      H2403   1.083       .  S
N2398      C2399   1.354       .  A
N2398      H2406   1.045       .  S
C2399      C2400   1.398       .  A
C2400      H2404   1.082       .  S
C2407      C2412   1.386       .  A
C2407      C2408   1.399       .  A
C2407      N2413   1.340       .  A
C2408      C2409   1.398       .  A
C2408      H2419   1.083       .  S
C2409      C2418   1.372       .  A
C2409      C2410   1.386       .  A
C2410      C2411   1.403       .  A
C2410      N2416   1.344       .  A
C2411      C2412   1.402       .  A
C2411      H2420   1.082       .  S
C2412      C2415   1.377       .  A
N2413      C2414   1.354       .  A
N2413      H2423   1.045       .  S
C2414      C2415   1.394       .  A
C2415      H2421   1.082       .  S
N2416      C2417   1.353       .  A
N2416      H2424   1.045       .  S
C2417      C2418   1.391       .  A
C2418      H2422   1.083       .  S
C2425      C2430   1.385       .  A
C2425      C2426   1.405       .  A
C2425      N2431   1.347       .  A
C2426      C2427   1.405       .  A
C2426      H2437   1.083       .  S
C2427      C2436   1.379       .  A
C2427      C2428   1.385       .  A
C2428      C2429   1.404       .  A
C2428      N2434   1.347       .  A
C2429      C2430   1.405       .  A
C2429      H2438   1.083       .  S
C2430      C2433   1.378       .  A
N2431      C2432   1.356       .  A
N2431      H2441   1.045       .  S
C2432      C2433   1.396       .  A
C2433      H2439   1.083       .  S
N2434      C2435   1.355       .  A
N2434      H2442   1.045       .  S
C2435      C2436   1.397       .  A
C2436      H2440   1.083       .  S
C2443      C2448   1.384       .  A
C2443      C2444   1.413       .  A
C2443      N2449   1.353       .  A
C2444      C2445   1.413       .  A
C2444      H2455   1.082       .  S
C2445      C2454   1.390       .  A
C2445      C2446   1.385       .  A
C2446      C2447   1.397       .  A
C2446      N2452   1.339       .  A
C2447      C2448   1.397       .  A
C2447      H2456   1.083       .  S
C2448      C2451   1.370       .  A
N2449      C2450   1.360       .  A
N2449      H2459   1.044       .  S
C2450      C2451   1.391       .  A
C2451      H2457   1.083       .  S
N2452      C2453   1.352       .  A
N2452      H2460   1.045       .  S
C2453      C2454   1.399       .  A
C2454      H2458   1.082       .  S
C2461      C2466   1.384       .  A
C2461      C2462   1.406       .  A
C2461      N2467   1.346       .  A
C2462      C2463   1.405       .  A
C2462      H2473   1.082       .  S
C2463      C2472   1.381       .  A
C2463      C2464   1.384       .  A
C2464      C2465   1.408       .  A
C2464      N2470   1.347       .  A
C2465      C2466   1.407       .  A
C2465      H2474   1.082       .  S
C2466      C2469   1.384       .  A
N2467      C2468   1.356       .  A
N2467      H2477   1.045       .  S
C2468      C2469   1.397       .  A
C2469      H2475   1.082       .  S
N2470      C2471   1.357       .  A
N2470      H2478   1.045       .  S
C2471      C2472   1.395       .  A
C2472      H2476   1.083       .  S
C2479      C2484   1.385       .  A
C2479      C2480   1.405       .  A
C2479      N2485   1.346       .  A
C2480      C2481   1.405       .  A
C2480      H2491   1.082       .  S
C2481      C2490   1.380       .  A
C2481      C2482   1.384       .  A
C2482      C2483   1.404       .  A
C2482      N2488   1.345       .  A
C2483      C2484   1.403       .  A
C2483      H2492   1.082       .  S
C2484      C2487   1.377       .  A
N2485      C2486   1.357       .  A
N2485      H2495   1.045       .  S
C2486      C2487   1.395       .  A
C2487      H2493   1.082       .  S
N2488      C2489   1.356       .  A
N2488      H2496   1.045       .  S
C2489      C2490   1.397       .  A
C2490      H2494   1.082       .  S
C2497      C2502   1.384       .  A
C2497      C2498   1.403       .  A
C2497      N2503   1.343       .  A
C2498      C2499   1.402       .  A
C2498      H2509   1.082       .  S
C2499      C2508   1.379       .  A
C2499      C2500   1.383       .  A
C2500      C2501   1.413       .  A
C2500      N2506   1.351       .  A
C2501      C2502   1.412       .  A
C2501      H2510   1.082       .  S
C2502      C2505   1.391       .  A
N2503      C2504   1.356       .  A
N2503      H2513   1.045       .  S
C2504      C2505   1.402       .  A
C2505      H2511   1.082       .  S
N2506      C2507   1.360       .  A
N2506      H2514   1.044       .  S
C2507      C2508   1.395       .  A
C2508      H2512   1.083       .  S
C2515      C2520   1.384       .  A
C2515      C2516   1.402       .  A
C2515      N2521   1.342       .  A
C2516      C2517   1.401       .  A
C2516      H2527   1.083       .  S
C2517      C2526   1.375       .  A
C2517      C2518   1.384       .  A
C2518      C2519   1.408       .  A
C2518      N2524   1.348       .  A
C2519      C2520   1.407       .  A
C2519      H2528   1.082       .  S
C2520      C2523   1.384       .  A
N2521      C2522   1.355       .  A
N2521      H2531   1.045       .  S
C2522      C2523   1.398       .  A
C2523      H2529   1.082       .  S
N2524      C2525   1.357       .  A
N2524      H2532   1.044       .  S
C2525      C2526   1.395       .  A
C2526      H2530   1.083       .  S
C2533      C2538   1.384       .  A
C2533      C2534   1.401       .  A
C2533      N2539   1.342       .  A
C2534      C2535   1.400       .  A
C2534      H2545   1.082       .  S
C2535      C2544   1.374       .  A
C2535      C2536   1.384       .  A
C2536      C2537   1.412       .  A
C2536      N2542   1.352       .  A
C2537      C2538   1.412       .  A
C2537      H2546   1.082       .  S
C2538      C2541   1.389       .  A
N2539      C2540   1.355       .  A
N2539      H2549   1.045       .  S
C2540      C2541   1.401       .  A
C2541      H2547   1.082       .  S
N2542      C2543   1.360       .  A
N2542      H2550   1.044       .  S
C2543      C2544   1.394       .  A
C2544      H2548   1.083       .  S
C2551      C2556   1.384       .  A
C2551      C2552   1.403       .  A
C2551      N2557   1.341       .  A
C2552      C2553   1.401       .  A
C2552      H2563   1.082       .  S
C2553      C2562   1.380       .  A
C2553      C2554   1.384       .  A
C2554      C2555   1.410       .  A
C2554      N2560   1.347       .  A
C2555      C2556   1.408       .  A
C2555      H2564   1.082       .  S
C2556      C2559   1.388       .  A
N2557      C2558   1.354       .  A
N2557      H2567   1.045       .  S
C2558      C2559   1.398       .  A
C2559      H2565   1.082       .  S
N2560      C2561   1.358       .  A
N2560      H2568   1.045       .  S
C2561      C2562   1.396       .  A
C2562      H2566   1.083       .  S
C2569      C2574   1.384       .  A
C2569      C2570   1.409       .  A
C2569      N2575   1.347       .  A
C2570      C2571   1.408       .  A
C2570      H2581   1.082       .  S
C2571      C2580   1.386       .  A
C2571      C2572   1.384       .  A
C2572      C2573   1.401       .  A
C2572      N2578   1.340       .  A
C2573      C2574   1.400       .  A
C2573      H2582   1.083       .  S
C2574      C2577   1.375       .  A
N2575      C2576   1.358       .  A
N2575      H2585   1.044       .  S
C2576      C2577   1.395       .  A
C2577      H2583   1.083       .  S
N2578      C2579   1.355       .  A
N2578      H2586   1.045       .  S
C2579      C2580   1.399       .  A
C2580      H2584   1.082       .  S
C2587      C2592   1.385       .  A
C2587      C2588   1.398       .  A
C2587      N2593   1.340       .  A
C2588      C2589   1.397       .  A
C2588      H2599   1.083       .  S
C2589      C2598   1.371       .  A
C2589      C2590   1.385       .  A
C2590      C2591   1.411       .  A
C2590      N2596   1.351       .  A
C2591      C2592   1.411       .  A
C2591      H2600   1.082       .  S
C2592      C2595   1.388       .  A
N2593      C2594   1.353       .  A
N2593      H2603   1.045       .  S
C2594      C2595   1.399       .  A
C2595      H2601   1.082       .  S
N2596      C2597   1.358       .  A
N2596      H2604   1.044       .  S
C2597      C2598   1.391       .  A
C2598      H2602   1.083       .  S
C2605      C2610   1.385       .  A
C2605      C2606   1.404       .  A
C2605      N2611   1.344       .  A
C2606      C2607   1.403       .  A
C2606      H2617   1.082       .  S
C2607      C2616   1.378       .  A
C2607      C2608   1.385       .  A
C2608      C2609   1.401       .  A
C2608      N2614   1.341       .  A
C2609      C2610   1.400       .  A
C2609      H2618   1.082       .  S
C2610      C2613   1.375       .  A
N2611      C2612   1.356       .  A
N2611      H2621   1.045       .  S
C2612      C2613   1.393       .  A
C2613      H2619   1.083       .  S
N2614      C2615   1.354       .  A
N2614      H2622   1.045       .  S
C2615      C2616   1.395       .  A
C2616      H2620   1.082       .  S
C2623      C2628   1.384       .  A
C2623      C2624   1.411       .  A
C2623      N2629   1.350       .  A
C2624      C2625   1.411   1_455  A
C2624      H2635   1.082       .  S
C2625      C2634   1.387       .  A
C2625      C2626   1.385       .  A
C2626      C2627   1.398   1_655  A
C2626      N2632   1.340       .  A
C2627      C2628   1.397       .  A
C2627      H2636   1.082       .  S
C2628      C2631   1.372       .  A
N2629      C2630   1.360       .  A
N2629      H2639   1.045       .  S
C2630      C2631   1.392       .  A
C2631      H2637   1.083       .  S
N2632      C2633   1.353       .  A
N2632      H2640   1.045       .  S
C2633      C2634   1.401       .  A
C2634      H2638   1.082       .  S
C2641      C2646   1.385       .  A
C2641      C2642   1.402       .  A
C2641      N2647   1.341       .  A
C2642      C2643   1.400       .  A
C2642      H2653   1.083       .  S
C2643      C2652   1.378       .  A
C2643      C2644   1.384       .  A
C2644      C2645   1.410       .  A
C2644      N2650   1.348       .  A
C2645      C2646   1.409       .  A
C2645      H2654   1.082       .  S
C2646      C2649   1.388       .  A
N2647      C2648   1.354       .  A
N2647      H2657   1.045       .  S
C2648      C2649   1.399       .  A
C2649      H2655   1.082       .  S
N2650      C2651   1.358       .  A
N2650      H2658   1.045       .  S
C2651      C2652   1.393       .  A
C2652      H2656   1.083       .  S
C2659      C2664   1.384       .  A
C2659      C2660   1.410       .  A
C2659      N2665   1.348       .  A
C2660      C2661   1.409       .  A
C2660      H2671   1.082       .  S
C2661      C2670   1.387       .  A
C2661      C2662   1.385       .  A
C2662      C2663   1.401       .  A
C2662      N2668   1.341       .  A
C2663      C2664   1.399       .  A
C2663      H2672   1.083       .  S
C2664      C2667   1.376       .  A
N2665      C2666   1.358       .  A
N2665      H2675   1.045       .  S
C2666      C2667   1.392       .  A
C2667      H2673   1.083       .  S
N2668      C2669   1.354       .  A
N2668      H2676   1.045       .  S
C2669      C2670   1.399       .  A
C2670      H2674   1.083       .  S
C2677      C2682   1.383       .  A
C2677      C2678   1.411       .  A
C2677      N2683   1.350       .  A
C2678      C2679   1.409   1_554  A
C2678      H2689   1.082       .  S
C2679      C2688   1.389       .  A
C2679      C2680   1.383       .  A
C2680      C2681   1.406   1_556  A
C2680      N2686   1.344       .  A
C2681      C2682   1.405       .  A
C2681      H2690   1.082       .  S
C2682      C2685   1.382       .  A
N2683      C2684   1.359       .  A
N2683      H2693   1.044       .  S
C2684      C2685   1.398       .  A
C2685      H2691   1.082       .  S
N2686      C2687   1.357       .  A
N2686      H2694   1.045       .  S
C2687      C2688   1.400       .  A
C2688      H2692   1.082       .  S
C2695      C2700   1.384       .  A
C2695      C2696   1.401   1_655  A
C2695      N2701   1.341       .  A
C2696      C2697   1.400       .  A
C2696      H2707   1.083   1_455  S
C2697      C2706   1.375       .  A
C2697      C2698   1.384       .  A
C2698      C2699   1.407       .  A
C2698      N2704   1.346       .  A
C2699      C2700   1.406   1_455  A
C2699      H2708   1.082       .  S
C2700      C2703   1.383       .  A
N2701      C2702   1.355       .  A
N2701      H2711   1.045       .  S
C2702      C2703   1.397       .  A
C2703      H2709   1.082       .  S
N2704      C2705   1.357       .  A
N2704      H2712   1.045       .  S
C2705      C2706   1.394       .  A
C2706      H2710   1.083       .  S
C2713      C2718   1.384       .  A
C2713      C2714   1.411       .  A
C2713      N2719   1.350       .  A
C2714      C2715   1.411       .  A
C2714      H2725   1.082       .  S
C2715      C2724   1.390       .  A
C2715      C2716   1.384       .  A
C2716      C2717   1.402       .  A
C2716      N2722   1.341       .  A
C2717      C2718   1.400       .  A
C2717      H2726   1.083       .  S
C2718      C2721   1.376       .  A
N2719      C2720   1.359       .  A
N2719      H2729   1.045       .  S
C2720      C2721   1.394       .  A
C2721      H2727   1.083       .  S
N2722      C2723   1.355       .  A
N2722      H2730   1.045       .  S
C2723      C2724   1.399       .  A
C2724      H2728   1.082       .  S
C2731      C2736   1.384       .  A
C2731      C2732   1.406       .  A
C2731      N2737   1.344       .  A
C2732      C2733   1.404       .  A
C2732      H2743   1.082       .  S
C2733      C2742   1.384       .  A
C2733      C2734   1.384       .  A
C2734      C2735   1.406       .  A
C2734      N2740   1.343       .  A
C2735      C2736   1.404       .  A
C2735      H2744   1.083       .  S
C2736      C2739   1.382       .  A
N2737      C2738   1.356       .  A
N2737      H2747   1.045       .  S
C2738      C2739   1.396       .  A
C2739      H2745   1.083       .  S
N2740      C2741   1.357       .  A
N2740      H2748   1.045       .  S
C2741      C2742   1.395       .  A
C2742      H2746   1.082       .  S
C2749      C2754   1.384       .  A
C2749      C2750   1.406       .  A
C2749      N2755   1.344       .  A
C2750      C2751   1.404       .  A
C2750      H2761   1.082       .  S
C2751      C2760   1.384       .  A
C2751      C2752   1.385       .  A
C2752      C2753   1.403       .  A
C2752      N2758   1.340       .  A
C2753      C2754   1.400       .  A
C2753      H2762   1.083       .  S
C2754      C2757   1.378       .  A
N2755      C2756   1.357       .  A
N2755      H2765   1.045       .  S
C2756      C2757   1.395       .  A
C2757      H2763   1.083       .  S
N2758      C2759   1.354       .  A
N2758      H2766   1.045       .  S
C2759      C2760   1.395       .  A
C2760      H2764   1.082       .  S
C2767      C2772   1.384       .  A
C2767      C2768   1.405   1_556  A
C2767      N2773   1.347       .  A
C2768      C2769   1.405       .  A
C2768      H2779   1.082       .  S
C2769      C2778   1.380       .  A
C2769      C2770   1.384       .  A
C2770      C2771   1.406       .  A
C2770      N2776   1.347       .  A
C2771      C2772   1.407   1_554  A
C2771      H2780   1.082       .  S
C2772      C2775   1.380       .  A
N2773      C2774   1.356       .  A
N2773      H2783   1.045       .  S
C2774      C2775   1.399       .  A
C2775      H2781   1.083       .  S
N2776      C2777   1.358       .  A
N2776      H2784   1.045       .  S
C2777      C2778   1.396       .  A
C2778      H2782   1.082       .  S
C2785      C2790   1.385       .  A
C2785      C2786   1.400       .  A
C2785      N2791   1.339       .  A
C2786      C2787   1.398       .  A
C2786      H2797   1.083       .  S
C2787      C2796   1.376       .  A
C2787      C2788   1.384       .  A
C2788      C2789   1.407       .  A
C2788      N2794   1.345       .  A
C2789      C2790   1.406       .  A
C2789      H2798   1.082       .  S
C2790      C2793   1.384       .  A
N2791      C2792   1.353       .  A
N2791      H2801   1.045       .  S
C2792      C2793   1.396       .  A
C2793      H2799   1.082       .  S
N2794      C2795   1.357       .  A
N2794      H2802   1.045       .  S
C2795      C2796   1.393       .  A
C2796      H2800   1.083       .  S
C2803      C2808   1.386       .  A
C2803      C2804   1.405       .  A
C2803      N2809   1.347       .  A
C2804      C2805   1.405       .  A
C2804      H2815   1.082       .  S
C2805      C2814   1.380       .  A
C2805      C2806   1.385       .  A
C2806      C2807   1.402       .  A
C2806      N2812   1.343       .  A
C2807      C2808   1.401       .  A
C2807      H2816   1.083       .  S
C2808      C2811   1.375       .  A
N2809      C2810   1.355       .  A
N2809      H2819   1.045       .  S
C2810      C2811   1.393       .  A
C2811      H2817   1.083       .  S
N2812      C2813   1.355       .  A
N2812      H2820   1.045       .  S
C2813      C2814   1.397       .  A
C2814      H2818   1.082       .  S
C2821      C2826   1.384       .  A
C2821      C2822   1.405       .  A
C2821      N2827   1.345       .  A
C2822      C2823   1.404       .  A
C2822      H2833   1.083       .  S
C2823      C2832   1.379       .  A
C2823      C2824   1.384       .  A
C2824      C2825   1.407       .  A
C2824      N2830   1.347       .  A
C2825      C2826   1.407       .  A
C2825      H2834   1.082       .  S
C2826      C2829   1.383       .  A
N2827      C2828   1.356       .  A
N2827      H2837   1.045       .  S
C2828      C2829   1.396       .  A
C2829      H2835   1.082       .  S
N2830      C2831   1.357       .  A
N2830      H2838   1.045       .  S
C2831      C2832   1.394       .  A
C2832      H2836   1.083       .  S
C2839      C2844   1.384       .  A
C2839      C2840   1.402       .  A
C2839      N2845   1.340       .  A
C2840      C2841   1.400       .  A
C2840      H2851   1.083       .  S
C2841      C2850   1.377       .  A
C2841      C2842   1.384       .  A
C2842      C2843   1.411       .  A
C2842      N2848   1.350       .  A
C2843      C2844   1.410       .  A
C2843      H2852   1.082       .  S
C2844      C2847   1.389       .  A
N2845      C2846   1.355       .  A
N2845      H2855   1.045       .  S
C2846      C2847   1.399       .  A
C2847      H2853   1.082       .  S
N2848      C2849   1.359       .  A
N2848      H2856   1.045       .  S
C2849      C2850   1.394       .  A
C2850      H2854   1.083       .  S
C2857      C2862   1.383       .  A
C2857      C2858   1.410       .  A
C2857      N2863   1.349       .  A
C2858      C2859   1.410       .  A
C2858      H2869   1.082       .  S
C2859      C2868   1.387       .  A
C2859      C2860   1.383       .  A
C2860      C2861   1.406       .  A
C2860      N2866   1.345       .  A
C2861      C2862   1.405       .  A
C2861      H2870   1.082       .  S
C2862      C2865   1.381       .  A
N2863      C2864   1.359       .  A
N2863      H2873   1.044       .  S
C2864      C2865   1.398       .  A
C2865      H2871   1.082       .  S
N2866      C2867   1.357       .  A
N2866      H2874   1.045       .  S
C2867      C2868   1.400       .  A
C2868      H2872   1.082       .  S
C2875      C2880   1.383       .  A
C2875      C2876   1.414       .  A
C2875      N2881   1.353       .  A
C2876      C2877   1.414       .  A
C2876      H2887   1.082       .  S
C2877      C2886   1.392       .  A
C2877      C2878   1.383       .  A
C2878      C2879   1.405       .  A
C2878      N2884   1.344       .  A
C2879      C2880   1.403       .  A
C2879      H2888   1.082       .  S
C2880      C2883   1.380       .  A
N2881      C2882   1.362       .  A
N2881      H2891   1.044       .  S
C2882      C2883   1.396       .  A
C2883      H2889   1.082       .  S
N2884      C2885   1.357       .  A
N2884      H2892   1.045       .  S
C2885      C2886   1.403       .  A
C2886      H2890   1.082       .  S
C2893      C2898   1.383       .  A
C2893      C2894   1.414       .  A
C2893      N2899   1.355       .  A
C2894      C2895   1.414       .  A
C2894      H2905   1.082       .  S
C2895      C2904   1.390       .  A
C2895      C2896   1.383       .  A
C2896      C2897   1.406       .  A
C2896      N2902   1.347       .  A
C2897      C2898   1.406       .  A
C2897      H2906   1.082       .  S
C2898      C2901   1.380       .  A
N2899      C2900   1.362       .  A
N2899      H2909   1.044       .  S
C2900      C2901   1.398       .  A
C2901      H2907   1.082       .  S
N2902      C2903   1.357       .  A
N2902      H2910   1.045       .  S
C2903      C2904   1.403       .  A
C2904      H2908   1.082       .  S
C2911      C2916   1.385       .  A
C2911      C2912   1.402       .  A
C2911      N2917   1.345       .  A
C2912      C2913   1.403       .  A
C2912      H2923   1.083       .  S
C2913      C2922   1.375       .  A
C2913      C2914   1.385       .  A
C2914      C2915   1.407       .  A
C2914      N2920   1.349       .  A
C2915      C2916   1.407       .  A
C2915      H2924   1.082       .  S
C2916      C2919   1.380       .  A
N2917      C2918   1.356       .  A
N2917      H2927   1.045       .  S
C2918      C2919   1.397       .  A
C2919      H2925   1.082       .  S
N2920      C2921   1.356       .  A
N2920      H2928   1.045       .  S
C2921      C2922   1.395       .  A
C2922      H2926   1.083       .  S
C2929      C2934   1.384       .  A
C2929      C2930   1.408       .  A
C2929      N2935   1.348       .  A
C2930      C2931   1.408       .  A
C2930      H2941   1.082       .  S
C2931      C2940   1.385       .  A
C2931      C2932   1.384       .  A
C2932      C2933   1.400       .  A
C2932      N2938   1.341       .  A
C2933      C2934   1.399       .  A
C2933      H2942   1.083       .  S
C2934      C2937   1.374       .  A
N2935      C2936   1.357       .  A
N2935      H2945   1.044       .  S
C2936      C2937   1.393       .  A
C2937      H2943   1.083       .  S
N2938      C2939   1.354       .  A
N2938      H2946   1.045       .  S
C2939      C2940   1.398       .  A
C2940      H2944   1.082       .  S
C2947      C2952   1.384       .  A
C2947      C2948   1.406       .  A
C2947      N2953   1.344       .  A
C2948      C2949   1.405       .  A
C2948      H2959   1.082       .  S
C2949      C2958   1.382       .  A
C2949      C2950   1.384       .  A
C2950      C2951   1.405       .  A
C2950      N2956   1.345       .  A
C2951      C2952   1.404       .  A
C2951      H2960   1.082       .  S
C2952      C2955   1.381       .  A
N2953      C2954   1.357       .  A
N2953      H2963   1.045       .  S
C2954      C2955   1.396       .  A
C2955      H2961   1.082       .  S
N2956      C2957   1.357       .  A
N2956      H2964   1.045       .  S
C2957      C2958   1.398       .  A
C2958      H2962   1.082       .  S
C2965      C2970   1.385       .  A
C2965      C2966   1.399       .  A
C2965      N2971   1.339       .  A
C2966      C2967   1.398       .  A
C2966      H2977   1.083       .  S
C2967      C2976   1.371       .  A
C2967      C2968   1.385       .  A
C2968      C2969   1.409       .  A
C2968      N2974   1.350       .  A
C2969      C2970   1.409       .  A
C2969      H2978   1.082       .  S
C2970      C2973   1.386       .  A
N2971      C2972   1.353       .  A
N2971      H2981   1.045       .  S
C2972      C2973   1.397       .  A
C2973      H2979   1.082       .  S
N2974      C2975   1.357       .  A
N2974      H2982   1.044       .  S
C2975      C2976   1.392       .  A
C2976      H2980   1.083       .  S
C2983      C2988   1.385       .  A
C2983      C2984   1.400       .  A
C2983      N2989   1.340       .  A
C2984      C2985   1.398   1_556  A
C2984      H2995   1.082       .  S
C2985      C2994   1.373       .  A
C2985      C2986   1.384       .  A
C2986      C2987   1.408       .  A
C2986      N2992   1.347       .  A
C2987      C2988   1.408   1_554  A
C2987      H2996   1.082       .  S
C2988      C2991   1.384       .  A
N2989      C2990   1.354       .  A
N2989      H2999   1.045       .  S
C2990      C2991   1.399       .  A
C2991      H2997   1.082       .  S
N2992      C2993   1.358       .  A
N2992      H3000   1.045       .  S
C2993      C2994   1.393       .  A
C2994      H2998   1.083       .  S
C3001      C3006   1.385       .  A
C3001      C3002   1.405       .  A
C3001      N3007   1.345       .  A
C3002      C3003   1.404       .  A
C3002      H3013   1.082       .  S
C3003      C3012   1.379       .  A
C3003      C3004   1.385       .  A
C3004      C3005   1.404       .  A
C3004      N3010   1.345       .  A
C3005      C3006   1.404       .  A
C3005      H3014   1.082       .  S
C3006      C3009   1.379       .  A
N3007      C3008   1.355       .  A
N3007      H3017   1.045       .  S
C3008      C3009   1.394       .  A
C3009      H3015   1.083       .  S
N3010      C3011   1.355       .  A
N3010      H3018   1.045       .  S
C3011      C3012   1.394       .  A
C3012      H3016   1.083       .  S
C3019      C3024   1.384       .  A
C3019      C3020   1.402       .  A
C3019      N3025   1.343       .  A
C3020      C3021   1.401       .  A
C3020      H3031   1.083       .  S
C3021      C3030   1.374       .  A
C3021      C3022   1.384       .  A
C3022      C3023   1.409       .  A
C3022      N3028   1.350       .  A
C3023      C3024   1.410       .  A
C3023      H3032   1.082       .  S
C3024      C3027   1.386       .  A
N3025      C3026   1.355       .  A
N3025      H3035   1.045       .  S
C3026      C3027   1.398       .  A
C3027      H3033   1.082       .  S
N3028      C3029   1.358       .  A
N3028      H3036   1.045       .  S
C3029      C3030   1.395       .  A
C3030      H3034   1.083       .  S
C3037      C3042   1.385       .  A
C3037      C3038   1.401       .  A
C3037      N3043   1.342       .  A
C3038      C3039   1.400   1_556  A
C3038      H3049   1.082       .  S
C3039      C3048   1.375       .  A
C3039      C3040   1.385       .  A
C3040      C3041   1.406       .  A
C3040      N3046   1.345       .  A
C3041      C3042   1.405   1_554  A
C3041      H3050   1.082       .  S
C3042      C3045   1.381       .  A
N3043      C3044   1.355       .  A
N3043      H3053   1.045       .  S
C3044      C3045   1.397       .  A
C3045      H3051   1.082       .  S
N3046      C3047   1.356       .  A
N3046      H3054   1.045       .  S
C3047      C3048   1.394       .  A
C3048      H3052   1.083       .  S
C3055      C3060   1.383       .  A
C3055      C3056   1.411       .  A
C3055      N3061   1.351       .  A
C3056      C3057   1.411   1_565  A
C3056      H3067   1.082       .  S
C3057      C3066   1.388       .  A
C3057      C3058   1.384       .  A
C3058      C3059   1.404   1_545  A
C3058      N3064   1.344       .  A
C3059      C3060   1.402       .  A
C3059      H3068   1.082       .  S
C3060      C3063   1.378       .  A
N3061      C3062   1.360       .  A
N3061      H3071   1.044       .  S
C3062      C3063   1.396       .  A
C3063      H3069   1.082       .  S
N3064      C3065   1.357       .  A
N3064      H3072   1.045       .  S
C3065      C3066   1.401       .  A
C3066      H3070   1.082       .  S
C3073      C3078   1.385       .  A
C3073      C3074   1.404       .  A
C3073      N3079   1.345       .  A
C3074      C3075   1.404       .  A
C3074      H3085   1.082       .  S
C3075      C3084   1.380       .  A
C3075      C3076   1.384       .  A
C3076      C3077   1.404       .  A
C3076      N3082   1.344       .  A
C3077      C3078   1.403       .  A
C3077      H3086   1.082       .  S
C3078      C3081   1.378       .  A
N3079      C3080   1.356       .  A
N3079      H3089   1.045       .  S
C3080      C3081   1.396       .  A
C3081      H3087   1.083       .  S
N3082      C3083   1.356       .  A
N3082      H3090   1.045       .  S
C3083      C3084   1.397       .  A
C3084      H3088   1.083       .  S
C3091      C3096   1.384       .  A
C3091      C3092   1.402       .  A
C3091      N3097   1.341       .  A
C3092      C3093   1.401       .  A
C3092      H3103   1.083       .  S
C3093      C3102   1.378       .  A
C3093      C3094   1.384       .  A
C3094      C3095   1.410       .  A
C3094      N3100   1.348       .  A
C3095      C3096   1.408       .  A
C3095      H3104   1.082       .  S
C3096      C3099   1.387       .  A
N3097      C3098   1.355       .  A
N3097      H3107   1.045       .  S
C3098      C3099   1.398       .  A
C3099      H3105   1.082       .  S
N3100      C3101   1.358       .  A
N3100      H3108   1.045       .  S
C3101      C3102   1.393       .  A
C3102      H3106   1.083       .  S
C3109      C3114   1.384       .  A
C3109      C3110   1.407       .  A
C3109      N3115   1.345       .  A
C3110      C3111   1.405       .  A
C3110      H3121   1.082       .  S
C3111      C3120   1.385       .  A
C3111      C3112   1.384       .  A
C3112      C3113   1.406       .  A
C3112      N3118   1.343       .  A
C3113      C3114   1.404       .  A
C3113      H3122   1.083       .  S
C3114      C3117   1.382       .  A
N3115      C3116   1.356       .  A
N3115      H3125   1.045       .  S
C3116      C3117   1.394       .  A
C3117      H3123   1.083       .  S
N3118      C3119   1.357       .  A
N3118      H3126   1.045       .  S
C3119      C3120   1.396       .  A
C3120      H3124   1.082       .  S
C3127      C3132   1.385       .  A
C3127      C3128   1.400   1_545  A
C3127      N3133   1.341       .  A
C3128      C3129   1.399       .  A
C3128      H3139   1.083       .  S
C3129      C3138   1.372       .  A
C3129      C3130   1.384       .  A
C3130      C3131   1.406       .  A
C3130      N3136   1.347       .  A
C3131      C3132   1.406   1_565  A
C3131      H3140   1.082       .  S
C3132      C3135   1.382       .  A
N3133      C3134   1.354       .  A
N3133      H3143   1.045       .  S
C3134      C3135   1.397       .  A
C3135      H3141   1.082       .  S
N3136      C3137   1.357       .  A
N3136      H3144   1.045       .  S
C3137      C3138   1.394       .  A
C3138      H3142   1.083       .  S
C3145      C3150   1.385       .  A
C3145      C3146   1.405       .  A
C3145      N3151   1.344       .  A
C3146      C3147   1.404       .  A
C3146      H3157   1.083       .  S
C3147      C3156   1.382       .  A
C3147      C3148   1.385       .  A
C3148      C3149   1.406       .  A
C3148      N3154   1.344       .  A
C3149      C3150   1.404       .  A
C3149      H3158   1.082       .  S
C3150      C3153   1.383       .  A
N3151      C3152   1.356       .  A
N3151      H3161   1.045       .  S
C3152      C3153   1.394       .  A
C3153      H3159   1.083       .  S
N3154      C3155   1.356       .  A
N3154      H3162   1.045       .  S
C3155      C3156   1.395       .  A
C3156      H3160   1.083       .  S
C3163      C3168   1.385       .  A
C3163      C3164   1.405       .  A
C3163      N3169   1.345       .  A
C3164      C3165   1.404       .  A
C3164      H3175   1.082       .  S
C3165      C3174   1.380       .  A
C3165      C3166   1.384       .  A
C3166      C3167   1.406       .  A
C3166      N3172   1.346       .  A
C3167      C3168   1.405       .  A
C3167      H3176   1.082       .  S
C3168      C3171   1.381       .  A
N3169      C3170   1.355       .  A
N3169      H3179   1.045       .  S
C3170      C3171   1.395       .  A
C3171      H3177   1.082       .  S
N3172      C3173   1.356       .  A
N3172      H3180   1.045       .  S
C3173      C3174   1.394       .  A
C3174      H3178   1.083       .  S
C3181      C3186   1.386       .  A
C3181      C3182   1.409       .  A
C3181      N3187   1.350       .  A
C3182      C3183   1.409       .  A
C3182      H3193   1.082       .  S
C3183      C3192   1.386       .  A
C3183      C3184   1.386       .  A
C3184      C3185   1.395       .  A
C3184      N3190   1.337       .  A
C3185      C3186   1.394       .  A
C3185      H3194   1.083       .  S
C3186      C3189   1.367       .  A
N3187      C3188   1.358       .  A
N3187      H3197   1.045       .  S
C3188      C3189   1.389       .  A
C3189      H3195   1.083       .  S
N3190      C3191   1.351       .  A
N3190      H3198   1.045       .  S
C3191      C3192   1.397       .  A
C3192      H3196   1.082       .  S
C3199      C3204   1.385       .  A
C3199      C3200   1.397       .  A
C3199      N3205   1.339       .  A
C3200      C3201   1.397       .  A
C3200      H3211   1.083       .  S
C3201      C3210   1.370       .  A
C3201      C3202   1.385       .  A
C3202      C3203   1.406       .  A
C3202      N3208   1.347       .  A
C3203      C3204   1.405       .  A
C3203      H3212   1.082       .  S
C3204      C3207   1.381       .  A
N3205      C3206   1.352       .  A
N3205      H3215   1.045       .  S
C3206      C3207   1.397       .  A
C3207      H3213   1.082       .  S
N3208      C3209   1.355       .  A
N3208      H3216   1.045       .  S
C3209      C3210   1.392       .  A
C3210      H3214   1.083       .  S
C3217      C3222   1.384       .  A
C3217      C3218   1.410       .  A
C3217      N3223   1.351       .  A
C3218      C3219   1.410       .  A
C3218      H3229   1.082       .  S
C3219      C3228   1.385       .  A
C3219      C3220   1.384       .  A
C3220      C3221   1.402       .  A
C3220      N3226   1.344       .  A
C3221      C3222   1.402       .  A
C3221      H3230   1.082       .  S
C3222      C3225   1.375       .  A
N3223      C3224   1.359       .  A
N3223      H3233   1.044       .  S
C3224      C3225   1.395       .  A
C3225      H3231   1.082       .  S
N3226      C3227   1.356       .  A
N3226      H3234   1.045       .  S
C3227      C3228   1.400       .  A
C3228      H3232   1.082       .  S
C3235      C3240   1.384       .  A
C3235      C3236   1.409       .  A
C3235      N3241   1.348       .  A
C3236      C3237   1.408       .  A
C3236      H3247   1.082       .  S
C3237      C3246   1.386       .  A
C3237      C3238   1.385       .  A
C3238      C3239   1.398       .  A
C3238      N3244   1.338       .  A
C3239      C3240   1.397       .  A
C3239      H3248   1.083       .  S
C3240      C3243   1.371       .  A
N3241      C3242   1.358       .  A
N3241      H3251   1.044       .  S
C3242      C3243   1.392       .  A
C3243      H3249   1.083       .  S
N3244      C3245   1.354       .  A
N3244      H3252   1.045       .  S
C3245      C3246   1.398       .  A
C3246      H3250   1.082       .  S
C3253      C3258   1.384       .  A
C3253      C3254   1.410       .  A
C3253      N3259   1.351       .  A
C3254      C3255   1.410       .  A
C3254      H3265   1.082       .  S
C3255      C3264   1.386       .  A
C3255      C3256   1.384       .  A
C3256      C3257   1.403       .  A
C3256      N3262   1.345       .  A
C3257      C3258   1.403       .  A
C3257      H3266   1.083       .  S
C3258      C3261   1.375       .  A
N3259      C3260   1.359       .  A
N3259      H3269   1.044       .  S
C3260      C3261   1.396       .  A
C3261      H3267   1.083       .  S
N3262      C3263   1.357       .  A
N3262      H3270   1.045       .  S
C3263      C3264   1.400       .  A
C3264      H3268   1.082       .  S
C3271      C3276   1.384       .  A
C3271      C3272   1.400       .  A
C3271      N3277   1.342       .  A
C3272      C3273   1.400       .  A
C3272      H3283   1.082       .  S
C3273      C3282   1.374       .  A
C3273      C3274   1.384       .  A
C3274      C3275   1.412       .  A
C3274      N3280   1.351       .  A
C3275      C3276   1.411       .  A
C3275      H3284   1.082       .  S
C3276      C3279   1.387       .  A
N3277      C3278   1.354       .  A
N3277      H3287   1.045       .  S
C3278      C3279   1.402       .  A
C3279      H3285   1.082       .  S
N3280      C3281   1.360       .  A
N3280      H3288   1.044       .  S
C3281      C3282   1.394       .  A
C3282      H3286   1.082       .  S
C3289      C3294   1.385       .  A
C3289      C3290   1.399       .  A
C3289      N3295   1.342       .  A
C3290      C3291   1.399       .  A
C3290      H3301   1.083       .  S
C3291      C3300   1.373       .  A
C3291      C3292   1.385       .  A
C3292      C3293   1.407       .  A
C3292      N3298   1.348       .  A
C3293      C3294   1.407       .  A
C3293      H3302   1.082       .  S
C3294      C3297   1.381       .  A
N3295      C3296   1.353       .  A
N3295      H3305   1.045       .  S
C3296      C3297   1.398       .  A
C3297      H3303   1.082       .  S
N3298      C3299   1.356       .  A
N3298      H3306   1.045       .  S
C3299      C3300   1.392       .  A
C3300      H3304   1.083       .  S
C3307      C3312   1.383       .  A
C3307      C3308   1.404       .  A
C3307      N3313   1.344       .  A
C3308      C3309   1.403       .  A
C3308      H3319   1.082       .  S
C3309      C3318   1.379       .  A
C3309      C3310   1.384       .  A
C3310      C3311   1.412       .  A
C3310      N3316   1.351       .  A
C3311      C3312   1.411       .  A
C3311      H3320   1.082       .  S
C3312      C3315   1.389       .  A
N3313      C3314   1.357       .  A
N3313      H3323   1.045       .  S
C3314      C3315   1.400       .  A
C3315      H3321   1.082       .  S
N3316      C3317   1.360       .  A
N3316      H3324   1.044       .  S
C3317      C3318   1.396       .  A
C3318      H3322   1.082       .  S
C3325      C3330   1.384       .  A
C3325      C3326   1.409       .  A
C3325      N3331   1.347       .  A
C3326      C3327   1.408       .  A
C3326      H3337   1.082       .  S
C3327      C3336   1.385       .  A
C3327      C3328   1.384       .  A
C3328      C3329   1.400       .  A
C3328      N3334   1.339       .  A
C3329      C3330   1.398       .  A
C3329      H3338   1.082       .  S
C3330      C3333   1.374       .  A
N3331      C3332   1.359       .  A
N3331      H3341   1.045       .  S
C3332      C3333   1.393       .  A
C3333      H3339   1.082       .  S
N3334      C3335   1.354       .  A
N3334      H3342   1.045       .  S
C3335      C3336   1.398       .  A
C3336      H3340   1.082       .  S
C3343      C3348   1.385       .  A
C3343      C3344   1.395       .  A
C3343      N3349   1.336       .  A
C3344      C3345   1.394       .  A
C3344      H3355   1.083       .  S
C3345      C3354   1.368       .  A
C3345      C3346   1.385       .  A
C3346      C3347   1.411       .  A
C3346      N3352   1.350       .  A
C3347      C3348   1.410       .  A
C3347      H3356   1.082       .  S
C3348      C3351   1.388       .  A
N3349      C3350   1.351       .  A
N3349      H3359   1.045       .  S
C3350      C3351   1.399       .  A
C3351      H3357   1.082       .  S
N3352      C3353   1.358       .  A
N3352      H3360   1.044       .  S
C3353      C3354   1.390       .  A
C3354      H3358   1.083       .  S
C3361      C3366   1.385       .  A
C3361      C3362   1.403       .  A
C3361      N3367   1.343       .  A
C3362      C3363   1.402       .  A
C3362      H3373   1.082       .  S
C3363      C3372   1.378       .  A
C3363      C3364   1.385       .  A
C3364      C3365   1.405       .  A
C3364      N3370   1.345       .  A
C3365      C3366   1.404       .  A
C3365      H3374   1.082       .  S
C3366      C3369   1.380       .  A
N3367      C3368   1.355       .  A
N3367      H3377   1.045       .  S
C3368      C3369   1.397       .  A
C3369      H3375   1.083       .  S
N3370      C3371   1.357       .  A
N3370      H3378   1.045       .  S
C3371      C3372   1.394       .  A
C3372      H3376   1.082       .  S
C3379      C3384   1.385       .  A
C3379      C3380   1.409       .  A
C3379      N3385   1.348       .  A
C3380      C3381   1.408   1_455  A
C3380      H3391   1.082       .  S
C3381      C3390   1.386       .  A
C3381      C3382   1.385       .  A
C3382      C3383   1.397   1_655  A
C3382      N3388   1.337       .  A
C3383      C3384   1.395       .  A
C3383      H3392   1.083       .  S
C3384      C3387   1.369       .  A
N3385      C3386   1.357       .  A
N3385      H3395   1.044       .  S
C3386      C3387   1.391       .  A
C3387      H3393   1.083       .  S
N3388      C3389   1.353       .  A
N3388      H3396   1.045       .  S
C3389      C3390   1.399       .  A
C3390      H3394   1.082       .  S
C3397      C3402   1.384       .  A
C3397      C3398   1.404   1_545  A
C3397      N3403   1.344       .  A
C3398      C3399   1.403       .  A
C3398      H3409   1.082       .  S
C3399      C3408   1.378       .  A
C3399      C3400   1.383       .  A
C3400      C3401   1.411       .  A
C3400      N3406   1.350       .  A
C3401      C3402   1.411   1_565  A
C3401      H3410   1.082       .  S
C3402      C3405   1.389       .  A
N3403      C3404   1.356       .  A
N3403      H3413   1.045       .  S
C3404      C3405   1.400       .  A
C3405      H3411   1.082       .  S
N3406      C3407   1.359       .  A
N3406      H3414   1.044       .  S
C3407      C3408   1.396       .  A
C3408      H3412   1.082       .  S
C3415      C3420   1.385       .  A
C3415      C3416   1.409       .  A
C3415      N3421   1.348       .  A
C3416      C3417   1.408       .  A
C3416      H3427   1.082       .  S
C3417      C3426   1.386       .  A
C3417      C3418   1.385       .  A
C3418      C3419   1.398       .  A
C3418      N3424   1.338       .  A
C3419      C3420   1.397       .  A
C3419      H3428   1.083       .  S
C3420      C3423   1.372       .  A
N3421      C3422   1.358       .  A
N3421      H3431   1.045       .  S
C3422      C3423   1.391       .  A
C3423      H3429   1.083       .  S
N3424      C3425   1.353       .  A
N3424      H3432   1.045       .  S
C3425      C3426   1.397       .  A
C3426      H3430   1.082       .  S
C3433      C3438   1.384       .  A
C3433      C3434   1.407       .  A
C3433      N3439   1.346       .  A
C3434      C3435   1.406       .  A
C3434      H3445   1.082       .  S
C3435      C3444   1.385       .  A
C3435      C3436   1.384       .  A
C3436      C3437   1.403       .  A
C3436      N3442   1.340       .  A
C3437      C3438   1.401       .  A
C3437      H3446   1.083       .  S
C3438      C3441   1.378       .  A
N3439      C3440   1.356       .  A
N3439      H3449   1.045       .  S
C3440      C3441   1.395       .  A
C3441      H3447   1.083       .  S
N3442      C3443   1.355       .  A
N3442      H3450   1.045       .  S
C3443      C3444   1.396       .  A
C3444      H3448   1.082       .  S
C3451      C3456   1.384       .  A
C3451      C3452   1.402   1_556  A
C3451      N3457   1.344       .  A
C3452      C3453   1.402       .  A
C3452      H3463   1.082       .  S
C3453      C3462   1.375       .  A
C3453      C3454   1.384       .  A
C3454      C3455   1.410       .  A
C3454      N3460   1.351       .  A
C3455      C3456   1.411   1_554  A
C3455      H3464   1.082       .  S
C3456      C3459   1.385       .  A
N3457      C3458   1.355       .  A
N3457      H3467   1.045       .  S
C3458      C3459   1.400       .  A
C3459      H3465   1.082       .  S
N3460      C3461   1.360       .  A
N3460      H3468   1.045       .  S
C3461      C3462   1.395       .  A
C3462      H3466   1.082       .  S
C3469      C3474   1.384       .  A
C3469      C3470   1.400   1_545  A
C3469      N3475   1.341       .  A
C3470      C3471   1.399       .  A
C3470      H3481   1.082       .  S
C3471      C3480   1.373       .  A
C3471      C3472   1.384       .  A
C3472      C3473   1.411       .  A
C3472      N3478   1.351       .  A
C3473      C3474   1.411   1_565  A
C3473      H3482   1.082       .  S
C3474      C3477   1.387       .  A
N3475      C3476   1.354       .  A
N3475      H3485   1.045       .  S
C3476      C3477   1.400       .  A
C3477      H3483   1.082       .  S
N3478      C3479   1.359       .  A
N3478      H3486   1.044       .  S
C3479      C3480   1.394       .  A
C3480      H3484   1.083       .  S
C3487      C3492   1.385       .  A
C3487      C3488   1.402       .  A
C3487      N3493   1.344       .  A
C3488      C3489   1.401       .  A
C3488      H3499   1.083       .  S
C3489      C3498   1.375       .  A
C3489      C3490   1.384       .  A
C3490      C3491   1.407       .  A
C3490      N3496   1.349       .  A
C3491      C3492   1.407       .  A
C3491      H3500   1.083       .  S
C3492      C3495   1.379       .  A
N3493      C3494   1.353       .  A
N3493      H3503   1.045       .  S
C3494      C3495   1.397       .  A
C3495      H3501   1.083       .  S
N3496      C3497   1.358       .  A
N3496      H3504   1.045       .  S
C3497      C3498   1.393       .  A
C3498      H3502   1.083       .  S
C3505      C3510   1.385       .  A
C3505      C3506   1.400       .  A
C3505      N3511   1.342       .  A
C3506      C3507   1.400       .  A
C3506      H3517   1.083       .  S
C3507      C3516   1.372       .  A
C3507      C3508   1.384       .  A
C3508      C3509   1.410       .  A
C3508      N3514   1.351       .  A
C3509      C3510   1.410       .  A
C3509      H3518   1.082       .  S
C3510      C3513   1.386       .  A
N3511      C3512   1.354       .  A
N3511      H3521   1.045       .  S
C3512      C3513   1.398       .  A
C3513      H3519   1.082       .  S
N3514      C3515   1.359       .  A
N3514      H3522   1.045       .  S
C3515      C3516   1.394       .  A
C3516      H3520   1.083       .  S
C3523      C3528   1.384       .  A
C3523      C3524   1.411       .  A
C3523      N3529   1.351       .  A
C3524      C3525   1.411       .  A
C3524      H3535   1.082       .  S
C3525      C3534   1.388       .  A
C3525      C3526   1.385       .  A
C3526      C3527   1.397       .  A
C3526      N3532   1.337       .  A
C3527      C3528   1.396       .  A
C3527      H3536   1.083       .  S
C3528      C3531   1.369       .  A
N3529      C3530   1.359       .  A
N3529      H3539   1.044       .  S
C3530      C3531   1.392       .  A
C3531      H3537   1.083       .  S
N3532      C3533   1.352       .  A
N3532      H3540   1.045       .  S
C3533      C3534   1.399       .  A
C3534      H3538   1.082       .  S
C3541      C3546   1.385       .  A
C3541      C3542   1.398       .  A
C3541      N3547   1.339       .  A
C3542      C3543   1.397   1_554  A
C3542      H3553   1.083       .  S
C3543      C3552   1.370       .  A
C3543      C3544   1.384       .  A
C3544      C3545   1.410   1_556  A
C3544      N3550   1.351       .  A
C3545      C3546   1.410       .  A
C3545      H3554   1.082       .  S
C3546      C3549   1.386       .  A
N3547      C3548   1.354       .  A
N3547      H3557   1.045       .  S
C3548      C3549   1.398       .  A
C3549      H3555   1.082       .  S
N3550      C3551   1.359       .  A
N3550      H3558   1.044       .  S
C3551      C3552   1.393       .  A
C3552      H3556   1.083       .  S
C3559      C3564   1.384       .  A
C3559      C3560   1.402   1_655  A
C3559      N3565   1.342       .  A
C3560      C3561   1.400       .  A
C3560      H3571   1.082       .  S
C3561      C3570   1.376       .  A
C3561      C3562   1.384       .  A
C3562      C3563   1.411       .  A
C3562      N3568   1.350       .  A
C3563      C3564   1.411   1_455  A
C3563      H3572   1.082       .  S
C3564      C3567   1.388       .  A
N3565      C3566   1.354       .  A
N3565      H3575   1.045       .  S
C3566      C3567   1.400       .  A
C3567      H3573   1.082       .  S
N3568      C3569   1.360       .  A
N3568      H3576   1.044       .  S
C3569      C3570   1.394       .  A
C3570      H3574   1.082       .  S
C3577      C3582   1.385       .  A
C3577      C3578   1.404       .  A
C3577      N3583   1.341       .  A
C3578      C3579   1.402       .  A
C3578      H3589   1.083       .  S
C3579      C3588   1.379       .  A
C3579      C3580   1.384       .  A
C3580      C3581   1.406       .  A
C3580      N3586   1.344       .  A
C3581      C3582   1.405       .  A
C3581      H3590   1.082       .  S
C3582      C3585   1.384       .  A
N3583      C3584   1.355       .  A
N3583      H3593   1.045       .  S
C3584      C3585   1.395       .  A
C3585      H3591   1.082       .  S
N3586      C3587   1.357       .  A
N3586      H3594   1.045       .  S
C3587      C3588   1.395       .  A
C3588      H3592   1.083       .  S
C3595      C3600   1.385       .  A
C3595      C3596   1.403       .  A
C3595      N3601   1.344       .  A
C3596      C3597   1.403       .  A
C3596      H3607   1.082       .  S
C3597      C3606   1.378       .  A
C3597      C3598   1.385       .  A
C3598      C3599   1.403       .  A
C3598      N3604   1.344       .  A
C3599      C3600   1.402       .  A
C3599      H3608   1.082       .  S
C3600      C3603   1.376       .  A
N3601      C3602   1.355       .  A
N3601      H3611   1.045       .  S
C3602      C3603   1.394       .  A
C3603      H3609   1.083       .  S
N3604      C3605   1.356       .  A
N3604      H3612   1.045       .  S
C3605      C3606   1.396       .  A
C3606      H3610   1.082       .  S
C3613      C3618   1.385       .  A
C3613      C3614   1.402       .  A
C3613      N3619   1.342       .  A
C3614      C3615   1.401       .  A
C3614      H3625   1.083       .  S
C3615      C3624   1.375       .  A
C3615      C3616   1.385       .  A
C3616      C3617   1.406       .  A
C3616      N3622   1.346       .  A
C3617      C3618   1.406       .  A
C3617      H3626   1.082       .  S
C3618      C3621   1.381       .  A
N3619      C3620   1.354       .  A
N3619      H3629   1.045       .  S
C3620      C3621   1.395       .  A
C3621      H3627   1.083       .  S
N3622      C3623   1.356       .  A
N3622      H3630   1.045       .  S
C3623      C3624   1.391       .  A
C3624      H3628   1.083       .  S
C3631      C3636   1.385       .  A
C3631      C3632   1.400       .  A
C3631      N3637   1.338       .  A
C3632      C3633   1.398       .  A
C3632      H3643   1.083       .  S
C3633      C3642   1.374       .  A
C3633      C3634   1.385       .  A
C3634      C3635   1.408       .  A
C3634      N3640   1.346       .  A
C3635      C3636   1.407       .  A
C3635      H3644   1.082       .  S
C3636      C3639   1.386       .  A
N3637      C3638   1.354       .  A
N3637      H3647   1.045       .  S
C3638      C3639   1.397       .  A
C3639      H3645   1.082       .  S
N3640      C3641   1.356       .  A
N3640      H3648   1.045       .  S
C3641      C3642   1.392       .  A
C3642      H3646   1.083       .  S
