geometry optimzed in LAMMPS
_audit_creation_date              2020-11-30 
_audit_creation_method            'lammps2cif' 
_symmetry_space_group_name_H-M    'P1' 
_symmetry_Int_Tables_number       1 
_symmetry_cell_setting            triclinic 
loop_ 
_symmetry_equiv_pos_as_xyz 
  x,y,z 
_cell_length_a                    37.01307664 
_cell_length_b                    37.012890540035286 
_cell_length_c                    36.919034314601376 
_cell_angle_alpha                 89.2562278353547 
_cell_angle_beta                  89.26060770242883 
_cell_angle_gamma                 90.86442736166954 
loop_ 
_atom_site_label 
_atom_site_type_symbol 
_atom_site_fract_x 
_atom_site_fract_y 
_atom_site_fract_z 
_atom_site_charge 
O1          O  0.53226039  0.05061909  0.85252435    -0.78800
O2          O  0.52726311  0.05566130  0.64512542    -0.80400
O3          O  0.60345600  0.04250572  0.74243278    -0.77400
O4          O  0.52007710  0.12520375  0.75309156    -0.75800
O5          O  0.45811128  0.12474010  0.75317687    -0.77600
O6          O  0.60306178  0.98053751  0.74422221    -0.78500
O7          O  0.55670294  0.08846296  0.68824494    -0.79900
O8          O  0.56445935  0.08029411  0.80739553    -0.80100
Eu9        Eu  0.54054555  0.06253484  0.74841683     2.39200
O10         O  0.48850732  0.06185588  0.71269926    -0.87700
O11         O  0.54001532  0.01083716  0.78633000    -0.91300
C12         C  0.55718214  0.07270577  0.84089962     1.03400
C13         C  0.54848672  0.08157974  0.65511936     1.03300
C14         C  0.61912905  0.01163883  0.74107675     1.03200
C15         C  0.48922373  0.14087090  0.75467605     1.01100
H16         H  0.56127928  0.01077346  0.69627105     0.30800
O17         O  0.54048691  0.01049389  0.71233864    -1.00000
H18         H  0.48902335  0.08256643  0.80165280     0.30800
O19         O  0.48877597  0.06160048  0.78641237    -1.02600
O20         O  0.44782149  0.96587691  0.64833658    -0.79800
O21         O  0.44260116  0.97111123  0.85562652    -0.79300
O22         O  0.55821408  0.93464472  0.69158773    -0.77800
O23         O  0.41759112  0.08367761  0.69070898    -0.81100
O24         O  0.41439121  0.08078566  0.80979123    -0.79000
O25         O  0.56396542  0.94091140  0.80983871    -0.77600
O26         O  0.45656289  0.89495370  0.75867740    -0.79100
O27         O  0.37326814  0.97764098  0.74766152    -0.81100
O28         O  0.51854659  0.89565225  0.75731003    -0.77800
O29         O  0.37343960  0.03959887  0.74738193    -0.80500
O30         O  0.52983408  0.96705350  0.64721111    -0.76200
O31         O  0.53108186  0.96902923  0.85402684    -0.76300
O32         O  0.44669640  0.05204112  0.85391304    -0.75900
O33         O  0.44662201  0.05146143  0.64671009    -0.79400
O34         O  0.41821728  0.93365382  0.69348838    -0.78800
O35         O  0.41008826  0.94139300  0.81248355    -0.77100
Eu36       Eu  0.48856126  0.00990615  0.67656063     2.39800
Eu37       Eu  0.48822993  0.00999883  0.82427685     2.39600
Eu38       Eu  0.53997546  0.95877819  0.75061785     2.38400
Eu39       Eu  0.43671128  0.06137688  0.75030438     2.39900
Eu40       Eu  0.43610174  0.95763550  0.75240452     2.39800
O41         O  0.43630460  0.00970569  0.78808066    -0.91600
O42         O  0.48798669  0.95826040  0.71471485    -0.90500
C43         C  0.42570115  0.94097580  0.65997107     1.03600
C44         C  0.41684021  0.94971876  0.84560298     1.02300
C45         C  0.55138514  0.94219994  0.65820234     1.01700
C46         C  0.42443017  0.07578121  0.65743429     1.03700
C47         C  0.42236750  0.07416418  0.84308837     1.02600
C48         C  0.55617422  0.94768565  0.84318254     1.01500
C49         C  0.48749970  0.87946484  0.76031321     1.01600
C50         C  0.35744187  0.00840885  0.74597148     1.04200
H51         H  0.48783651  0.93732240  0.80478434     0.31500
O52         O  0.48806102  0.95804591  0.78862875    -1.03700
H53         H  0.41590038  0.00892423  0.69899797     0.33600
O54         O  0.43684377  0.00927872  0.71427147    -1.06300
C55         C  0.68439112  0.20826419  0.49913994     0.87800
C56         C  0.66462941  0.19165948  0.53224246    -0.52500
C57         C  0.62814482  0.18820167  0.52794838     0.10700
C58         C  0.61474883  0.20238655  0.49097602     0.21600
C59         C  0.67355991  0.18425523  0.46730149    -0.53200
C60         C  0.63701746  0.18115318  0.46316394     0.10800
C61         C  0.66614913  0.24431191  0.49200894    -0.52700
C62         C  0.62985995  0.24145964  0.48739276     0.11400
H63         H  0.67840547  0.18204435  0.55624143     0.15900
H64         H  0.58506051  0.19984482  0.48736856     0.01600
H65         H  0.69289117  0.17075005  0.44993173     0.16200
H66         H  0.68087288  0.26990378  0.48973195     0.16000
O67         O  0.53402669  0.05294154  0.35141954    -0.78800
O68         O  0.53214759  0.04810090  0.14442264    -0.80400
O69         O  0.60530035  0.03998445  0.25284138    -0.77400
O70         O  0.52256724  0.12271794  0.24075551    -0.75800
O71         O  0.46061739  0.12243401  0.24252200    -0.77600
O72         O  0.60479397  0.97806220  0.25360700    -0.78500
O73         O  0.56586764  0.07777755  0.18676062    -0.79900
O74         O  0.56335127  0.08439986  0.30559516    -0.80100
Eu75       Eu  0.54278121  0.06037712  0.24734809     2.39200
O76         O  0.49014831  0.05997060  0.21217257    -0.87700
O77         O  0.54216386  0.00921064  0.28545026    -0.91300
C78         C  0.55660034  0.07727240  0.33933444     1.03400
C79         C  0.55773815  0.06994829  0.15388608     1.03300
C80         C  0.62086089  0.00915064  0.25525324     1.03200
C81         C  0.49172737  0.13824824  0.23915432     1.01100
H82         H  0.56306039  0.00768289  0.19642001     0.30800
O83         O  0.54174356  0.00809511  0.21175669    -1.00000
H84         H  0.49208822  0.08296640  0.29970024     0.30800
O85         O  0.49153834  0.06112919  0.28571831    -1.02600
O86         O  0.44546158  0.96506895  0.14948026    -0.79800
O87         O  0.45095608  0.96625784  0.35647218    -0.79300
O88         O  0.56186404  0.93590274  0.19061718    -0.77800
O89         O  0.41387094  0.07808911  0.19190283    -0.81100
O90         O  0.42127454  0.08477637  0.30969030    -0.79000
O91         O  0.56304388  0.93641081  0.30948141    -0.77600
O92         O  0.45806299  0.89360227  0.24787522    -0.79100
O93         O  0.37594243  0.97670054  0.26026487    -0.81100
O94         O  0.51997945  0.89385795  0.24655186    -0.77800
O95         O  0.37648309  0.03865543  0.25889178    -0.80500
O96         O  0.52867532  0.96435346  0.14695749    -0.76200
O97         O  0.53502807  0.96961770  0.35340373    -0.76300
O98         O  0.45098512  0.05336506  0.35386347    -0.75900
O99         O  0.44490468  0.04839837  0.14745702    -0.79400
O100        O  0.41408681  0.93568939  0.19532313    -0.78800
O101        O  0.42075851  0.93303739  0.31411479    -0.77100
Eu102      Eu  0.48863740  0.00776363  0.17665984     2.39800
Eu103      Eu  0.49136992  0.00973202  0.32421858     2.39600
Eu104      Eu  0.54160218  0.95690055  0.25017803     2.38400
Eu105      Eu  0.43897951  0.06001067  0.25067357     2.39900
Eu106      Eu  0.43815860  0.95621793  0.25356483     2.39800
O107        O  0.43898936  0.00867856  0.28895714    -0.91600
O108        O  0.48911520  0.95679036  0.21518724    -0.90500
C109        C  0.42120086  0.94242957  0.16157940     1.03600
C110        C  0.42881133  0.94092327  0.34699299     1.02300
C111        C  0.55280025  0.94186658  0.15750530     1.01700
C112        C  0.42050899  0.07045829  0.15850604     1.03700
C113        C  0.42898583  0.07790604  0.34302141     1.02600
C114        C  0.55738813  0.94547589  0.34264130     1.01500
C115        C  0.48880420  0.87792911  0.24512564     1.01600
C116        C  0.36053983  0.00759149  0.26202591     1.04200
H117        H  0.49101834  0.93537915  0.30415844     0.31500
O118        O  0.49062645  0.95676375  0.28891231    -1.03700
H119        H  0.41551603  0.00717762  0.20149534     0.33600
O120        O  0.43741346  0.00761327  0.21538863    -1.06300
C121        C  0.29027001  0.81435883  0.00183890     0.87800
C122        C  0.30677040  0.83411678  0.96870275    -0.52500
C123        C  0.31029783  0.87057973  0.97301186     0.10700
C124        C  0.29628020  0.88397941  0.01003356     0.21600
C125        C  0.31440992  0.82512400  0.03360222    -0.53200
C126        C  0.31757826  0.86166010  0.03775845     0.10800
C127        C  0.25426814  0.83263635  0.00911139    -0.52700
C128        C  0.25720058  0.86892334  0.01372729     0.11400
H129        H  0.31627772  0.82034698  0.94465806     0.15900
H130        H  0.29887959  0.91366376  0.01364061     0.01600
H131        H  0.32794694  0.80575714  0.05090782     0.16200
H132        H  0.22865488  0.81795516  0.01141706     0.16000
C133        C  0.68443693  0.81327946  0.99847589     0.87800
C134        C  0.65897914  0.82204613  0.03027705    -0.52500
C135        C  0.65118481  0.85790522  0.03225976     0.10700
C136        C  0.66943420  0.88158498  0.00269860     0.21600
C137        C  0.66570628  0.82824144  0.96468116    -0.53200
C138        C  0.65770655  0.86406289  0.96708585     0.10800
C139        C  0.71770887  0.83763735  0.00352384    -0.52700
C140        C  0.70983954  0.87332346  0.00595510     0.11400
H141        H  0.64820056  0.80190826  0.04934192     0.15900
H142        H  0.66302972  0.91075292  0.00462525     0.01600
H143        H  0.65855013  0.81188331  0.94155403     0.16200
H144        H  0.74499783  0.82748687  0.00587291     0.16000
C145        C  0.68564429  0.81438486  0.50227405     0.87800
C146        C  0.67699258  0.83989907  0.47049706    -0.52500
C147        C  0.64118303  0.84787881  0.46854138     0.10700
C148        C  0.61742835  0.82977080  0.49813241     0.21600
C149        C  0.67083173  0.83316145  0.53610101    -0.53200
C150        C  0.63505330  0.84135135  0.53374828     0.10800
C151        C  0.66110370  0.78125215  0.49722900    -0.52700
C152        C  0.62546513  0.78932857  0.49484676     0.11400
H153        H  0.69715432  0.85049752  0.45135920     0.15900
H154        H  0.58829442  0.83632840  0.49623255     0.01600
H155        H  0.68723984  0.84013678  0.55924816     0.16200
H156        H  0.67109560  0.75390491  0.49485509     0.16000
C157        C  0.28781975  0.19979727  0.00190033     0.87800
C158        C  0.30768049  0.18629190  0.03565305    -0.52500
C159        C  0.31610738  0.15050610  0.03432409     0.10700
C160        C  0.30367863  0.13158235  0.99967174     0.21600
C161        C  0.31251303  0.19025977  0.96976865    -0.53200
C162        C  0.32077643  0.15446645  0.96879625     0.10800
C163        C  0.25474024  0.17483664  0.99864629    -0.52700
C164        C  0.26305362  0.13918260  0.99732335     0.11400
H165        H  0.31512101  0.20354796  0.05802372     0.15900
H166        H  0.31042527  0.10244656  0.99860268     0.01600
H167        H  0.32252446  0.20988273  0.94977760     0.16200
H168        H  0.22722699  0.18451601  0.99687280     0.16000
C169        C  0.68780564  0.20266794  0.99693146     0.87800
C170        C  0.66475523  0.19048383  0.96496721    -0.52500
C171        C  0.66095124  0.15383926  0.96315135     0.10700
C172        C  0.68045966  0.13288029  0.99305036     0.21600
C173        C  0.66953729  0.18554301  0.03053278    -0.53200
C174        C  0.66542519  0.14896669  0.02834879     0.10800
C175        C  0.72363075  0.18322287  0.99242531    -0.52700
C176        C  0.71984939  0.14675245  0.99010729     0.11400
H177        H  0.65232374  0.20897587  0.94590803     0.15900
H178        H  0.67723451  0.10305171  0.99129111     0.01600
H179        H  0.65934916  0.20102922  0.05318636     0.16200
H180        H  0.74966033  0.19714480  0.99022265     0.16000
C181        C  0.29937544  0.21118718  0.49868458     0.87800
C182        C  0.31309261  0.19123186  0.46506920    -0.52500
C183        C  0.34890132  0.18291739  0.46659285     0.10700
C184        C  0.36764034  0.19554670  0.50126719     0.21600
C185        C  0.30887628  0.18663213  0.53095355    -0.53200
C186        C  0.34469486  0.17847206  0.53210522     0.10800
C187        C  0.32422822  0.24435648  0.50190775    -0.52700
C188        C  0.35990399  0.23615789  0.50342020     0.11400
H189        H  0.29594925  0.18361053  0.44267198     0.15900
H190        H  0.39679182  0.18889108  0.50247947     0.01600
H191        H  0.28919252  0.17656691  0.55085591     0.16200
H192        H  0.31445883  0.27184689  0.50352810     0.16000
C193        C  0.29668146  0.80900181  0.50357860     0.87800
C194        C  0.30817628  0.83249390  0.53550306    -0.52500
C195        C  0.34472531  0.83724103  0.53744016     0.10700
C196        C  0.36628014  0.81816518  0.50768533     0.21600
C197        C  0.31349111  0.82755072  0.46995511    -0.53200
C198        C  0.34995828  0.83261611  0.47225884     0.10800
C199        C  0.31703391  0.77373194  0.50831222    -0.52700
C200        C  0.35339786  0.77847650  0.51075893     0.11400
H201        H  0.28930272  0.84445167  0.55449989     0.15900
H202        H  0.39602231  0.82214058  0.50954376     0.01600
H203        H  0.29784282  0.83720532  0.44718344     0.16200
H204        H  0.30377695  0.74737221  0.51062729     0.16000
O205        O  0.87513238  0.76171677  0.53212562    -0.78800
O206        O  0.02177296  0.75359927  0.38548930    -0.80400
O207        O  0.91769596  0.81689225  0.42742340    -0.77400
O208        O  0.91696833  0.69827069  0.42865264    -0.75800
O209        O  0.95037816  0.65483399  0.45706735    -0.77600
O210        O  0.94584607  0.86078932  0.46062843    -0.78500
O211        O  0.95983916  0.75283647  0.38569300    -0.79900
O212        O  0.87534138  0.76249367  0.47005649    -0.80100
Eu213      Eu  0.93837627  0.75768954  0.44872513     2.39200
O214        O  0.99069443  0.72251853  0.44866744    -0.87700
O215        O  0.93816982  0.79315592  0.50092595    -0.91300
C216        C  0.85946688  0.76445678  0.50126798     1.03400
C217        C  0.99097491  0.75080351  0.36983662     1.03300
C218        C  0.92353726  0.85001589  0.43631883     1.03200
C219        C  0.92591519  0.66526110  0.43483844     1.01100
H220        H  0.98940633  0.81101632  0.42679597     0.30800
O221        O  0.98971681  0.79596326  0.44833770    -1.00000
H222        H  0.91676666  0.70440753  0.50000341     0.30800
O223        O  0.93821447  0.71959724  0.50021968    -1.02600
O224        O  0.10445811  0.76727405  0.46822874    -0.79800
O225        O  0.95801484  0.74903457  0.61477704    -0.79300
O226        O  0.02980513  0.86321449  0.45768437    -0.77800
O227        O  0.03450910  0.65665951  0.45788645    -0.81100
O228        O  0.94797557  0.65260596  0.54077131    -0.79000
O229        O  0.94694094  0.85914024  0.54453691    -0.77600
O230        O  0.05975879  0.81739090  0.57613818    -0.79100
O231        O  0.06621762  0.69981379  0.57017956    -0.81100
O232        O  0.02998565  0.86130474  0.54452670    -0.77800
O233        O  0.03475081  0.65537060  0.54082926    -0.80500
O234        O  0.05963430  0.82073332  0.42447209    -0.76200
O235        O  0.91756146  0.81369827  0.57642247    -0.76300
O236        O  0.91435754  0.69504833  0.57015314    -0.75900
O237        O  0.06633386  0.70212614  0.42848341    -0.79400
O238        O  0.10410501  0.76624079  0.53032684    -0.78800
O239        O  0.01997450  0.75081944  0.61442657    -0.77100
Eu240      Eu  0.04201716  0.76047493  0.44799065     2.39800
Eu241      Eu  0.93763519  0.75541646  0.55238285     2.39600
Eu242      Eu  0.98918244  0.83157273  0.50119283     2.38400
Eu243      Eu  0.99117493  0.68443195  0.49998327     2.39900
Eu244      Eu  0.04153332  0.75843682  0.55184921     2.39800
O245        O  0.99012710  0.72023383  0.55203817    -0.91600
O246        O  0.04141770  0.79627056  0.50021788    -0.90500
C247        C  0.12000342  0.76917133  0.49916466     1.03600
C248        C  0.98889903  0.74758411  0.63030480     1.02300
C249        C  0.05185603  0.85358217  0.43237675     1.01700
C250        C  0.05912827  0.66851405  0.43548674     1.03700
C251        C  0.92247283  0.66219772  0.56258520     1.02600
C252        C  0.92446629  0.84731075  0.56910631     1.01500
C253        C  0.05212673  0.85059944  0.56906218     1.01600
C254        C  0.05935454  0.66649262  0.56272571     1.04200
H255        H  0.98874551  0.80757185  0.57471649     0.31500
O256        O  0.98911866  0.79350162  0.55292046    -1.03700
H257        H  0.06448229  0.70886923  0.49938867     0.33600
O258        O  0.04265281  0.72279277  0.49969620    -1.06300
O259        O  0.87811369  0.24839453  0.53736646    -0.78800
O260        O  0.02269093  0.26571060  0.38753296    -0.80400
O261        O  0.91571965  0.31504343  0.43370530    -0.77400
O262        O  0.92212690  0.19722752  0.42960124    -0.75800
O263        O  0.95164250  0.15368058  0.46197960    -0.77600
O264        O  0.94815445  0.35985453  0.46143745    -0.78500
O265        O  0.96072564  0.26293240  0.38892171    -0.79900
O266        O  0.87757776  0.24988464  0.47525700    -0.80100
Eu267      Eu  0.94030843  0.25661690  0.45254419     2.39200
O268        O  0.99290271  0.22181632  0.45171343    -0.87700
O269        O  0.94021682  0.29268400  0.50445197    -0.91300
C270        C  0.86198557  0.24678355  0.50664633     1.03400
C271        C  0.99151210  0.26657904  0.37234311     1.03300
C272        C  0.92326978  0.34846042  0.44003796     1.03200
C273        C  0.92935850  0.16411170  0.43747400     1.01100
H274        H  0.99136005  0.31126707  0.43004164     0.30800
O275        O  0.99166059  0.29533808  0.45093239    -1.00000
H276        H  0.92045957  0.20263787  0.50532854     0.30800
O277        O  0.94108715  0.21894014  0.50465454    -1.02600
O278        O  0.10748523  0.25651924  0.46964933    -0.79800
O279        O  0.96287073  0.26032753  0.61889755    -0.79300
O280        O  0.03611018  0.36331194  0.46275365    -0.77800
O281        O  0.03384189  0.15645511  0.45914833    -0.81100
O282        O  0.95508687  0.15248277  0.54991992    -0.79000
O283        O  0.94759885  0.35877367  0.54394144    -0.77600
O284        O  0.06699570  0.31887113  0.57208945    -0.79100
O285        O  0.06473133  0.19981667  0.57730708    -0.81100
O286        O  0.03324279  0.36201172  0.54368635    -0.77800
O287        O  0.03576676  0.15531611  0.54563952    -0.80500
O288        O  0.06890287  0.32069469  0.43283916    -0.76200
O289        O  0.91678100  0.31350425  0.57477148    -0.76300
O290        O  0.92541372  0.19527113  0.58271578    -0.75900
O291        O  0.06244944  0.20170208  0.42619352    -0.79400
O292        O  0.10809353  0.25640088  0.53174998    -0.78800
O293        O  0.02483962  0.26202498  0.61769473    -0.77100
Eu294      Eu  0.04426999  0.26030885  0.45012371     2.39800
Eu295      Eu  0.94126757  0.25522555  0.55652652     2.39600
Eu296      Eu  0.99153018  0.33131508  0.50264518     2.38400
Eu297      Eu  0.99343714  0.18410699  0.50375285     2.39900
Eu298      Eu  0.04510377  0.25883849  0.55403544     2.39800
O299        O  0.99382701  0.22050020  0.55554316    -0.91600
O300        O  0.04408157  0.29621835  0.50204915    -0.90500
C301        C  0.12370571  0.25502616  0.50034359     1.03600
C302        C  0.99391160  0.26277604  0.63418082     1.02300
C303        C  0.06168598  0.35369121  0.44092872     1.01700
C304        C  0.05546257  0.16822936  0.43385276     1.03700
C305        C  0.93372143  0.16228907  0.57582247     1.02600
C306        C  0.92339404  0.34695545  0.56674623     1.01500
C307        C  0.05833469  0.35185723  0.56528658     1.01600
C308        C  0.05790548  0.16645540  0.56992705     1.04200
H309        H  0.99233906  0.30933332  0.57557749     0.31500
O310        O  0.99248091  0.29397406  0.55467663    -1.03700
H311        H  0.06587429  0.20754933  0.50165452     0.33600
O312        O  0.04475192  0.22250471  0.50210988    -1.06300
C313        C  0.79301804  0.50464047  0.69454458     0.87800
C314        C  0.81627670  0.47259597  0.68346159    -0.52500
C315        C  0.82079793  0.47016544  0.64686298     0.10700
C316        C  0.80175129  0.49961004  0.62488025     0.21600
C317        C  0.81159132  0.53790674  0.67727692    -0.53200
C318        C  0.81641407  0.53513512  0.64077154     0.10800
C319        C  0.75760687  0.49974320  0.67437238    -0.52700
C320        C  0.76211221  0.49682848  0.63796375     0.11400
H321        H  0.82821704  0.45386179  0.70261564     0.15900
H322        H  0.80556239  0.49736956  0.59508743     0.01600
H323        H  0.82130447  0.56086496  0.69263267     0.16200
H324        H  0.73130863  0.49776319  0.68778480     0.16000
C325        C  0.19346769  0.51016327  0.68987124     0.87800
C326        C  0.17397550  0.54421021  0.67685720    -0.52500
C327        C  0.16579971  0.54362775  0.64087462     0.10700
C328        C  0.17809815  0.50941858  0.62128973     0.21600
C329        C  0.16861182  0.47850540  0.67943647    -0.53200
C330        C  0.16061329  0.47831128  0.64347857     0.10800
C331        C  0.22669528  0.50722902  0.66509311    -0.52700
C332        C  0.21862848  0.50667881  0.62924231     0.11400
H333        H  0.16643241  0.56613365  0.69457456     0.15900
H334        H  0.17152838  0.50896617  0.59199829     0.01600
H335        H  0.15828977  0.45823869  0.69861481     0.16200
H336        H  0.25410725  0.50502148  0.67501884     0.16000
C337        C  0.79426520  0.01013919  0.30662801     0.87800
C338        C  0.80312435  0.97756432  0.33101266    -0.52500
C339        C  0.83880263  0.97613577  0.33976828     0.10700
C340        C  0.86219371  0.00696041  0.32348073     0.21600
C341        C  0.80787607  0.04334330  0.32729767    -0.53200
C342        C  0.84353179  0.04145383  0.33620671     0.10800
C343        C  0.81962719  0.00719779  0.27378357    -0.52700
C344        C  0.85511745  0.00535183  0.28265400     0.11400
H345        H  0.78320338  0.95756718  0.34033320     0.15900
H346        H  0.89122612  0.00548463  0.33063385     0.01600
H347        H  0.79084222  0.06576825  0.33478778     0.16200
H348        H  0.81030018  0.00576451  0.24603063     0.16000
C349        C  0.79651320  0.00518481  0.70132537     0.87800
C350        C  0.81571962  0.03887181  0.68530105    -0.52500
C351        C  0.85231460  0.03540349  0.68195705     0.10700
C352        C  0.86633852  0.99860318  0.69573008     0.21600
C353        C  0.80805116  0.97406400  0.67680514    -0.53200
C354        C  0.84468907  0.97074128  0.67382618     0.10800
C355        C  0.81473824  0.99789308  0.73745784    -0.52700
C356        C  0.85112044  0.99413394  0.73479238     0.11400
H357        H  0.80150782  0.06261687  0.67588978     0.15900
H358        H  0.89610547  0.99567498  0.69332100     0.01600
H359        H  0.78909830  0.95655436  0.66288883     0.16200
H360        H  0.79994848  0.99499822  0.76300012     0.16000
C361        C  0.79796248  0.50524763  0.30426941     0.87800
C362        C  0.82293256  0.53705194  0.31408268    -0.52500
C363        C  0.83054009  0.53807791  0.35012046     0.10700
C364        C  0.81269745  0.50761997  0.37287951     0.21600
C365        C  0.81704251  0.47139500  0.31828479    -0.53200
C366        C  0.82483113  0.47283194  0.35429426     0.10800
C367        C  0.76454164  0.50906355  0.32864027    -0.52700
C368        C  0.77233182  0.51050087  0.36450259     0.11400
H369        H  0.83331888  0.55694866  0.29455383     0.15900
H370        H  0.81896552  0.50875787  0.40221696     0.01600
H371        H  0.82432060  0.44883394  0.30127398     0.16200
H372        H  0.73724988  0.51138037  0.31841550     0.16000
C373        C  0.19037488  0.51145635  0.30567160     0.87800
C374        C  0.17298148  0.47790954  0.32395337    -0.52500
C375        C  0.16912597  0.48077766  0.36067925     0.10700
C376        C  0.18387949  0.51687490  0.37573209     0.21600
C377        C  0.16678010  0.54310351  0.31751415    -0.53200
C378        C  0.16332327  0.54579904  0.35426789     0.10800
C379        C  0.22629797  0.51726392  0.32465908    -0.52700
C380        C  0.22319104  0.52049260  0.36115964     0.11400
H381        H  0.16305652  0.45475868  0.30903652     0.15900
H382        H  0.18108709  0.51934986  0.40559791     0.01600
H383        H  0.15376450  0.56138136  0.29866280     0.16200
H384        H  0.25204362  0.51986812  0.31025778     0.16000
C385        C  0.18449367  0.01156496  0.30302039     0.87800
C386        C  0.17332483  0.04355505  0.32644773    -0.52500
C387        C  0.13681820  0.04562302  0.33127949     0.10700
C388        C  0.11498794  0.01595761  0.31233419     0.21600
C389        C  0.16761372  0.97816358  0.32176746    -0.53200
C390        C  0.13119232  0.98060982  0.32687827     0.10800
C391        C  0.16403280  0.01620971  0.26770587    -0.52700
C392        C  0.12772784  0.01885125  0.27253034     0.11400
H393        H  0.19236486  0.06253097  0.33824455     0.15900
H394        H  0.08527502  0.01794360  0.31637019     0.01600
H395        H  0.18315379  0.95535055  0.33134626     0.16200
H396        H  0.17719827  0.01848764  0.24125616     0.16000
C397        C  0.18101830  0.00554638  0.70412122     0.87800
C398        C  0.16763215  0.97240576  0.68323707    -0.52500
C399        C  0.13178126  0.97366963  0.67499404     0.10700
C400        C  0.11266281  0.00763413  0.68856181     0.21600
C401        C  0.17104129  0.03823633  0.68041128    -0.53200
C402        C  0.13518974  0.03915676  0.67229808     0.10800
C403        C  0.15621919  0.00752010  0.73749551    -0.52700
C404        C  0.12049318  0.00878009  0.72930312     0.11400
H405        H  0.18499613  0.95048773  0.67502586     0.15900
H406        H  0.08347244  0.00862890  0.68195329     0.01600
H407        H  0.19045925  0.05862777  0.67087799     0.16200
H408        H  0.16604500  0.00867258  0.76508352     0.16000
O409        O  0.73635937  0.62359482  0.96831476    -0.78800
O410        O  0.74570031  0.47662771  0.11456364    -0.80400
O411        O  0.68221123  0.58091569  0.07331688    -0.77400
O412        O  0.80101173  0.58153129  0.07124811    -0.75800
O413        O  0.84421975  0.54821856  0.04236692    -0.77600
O414        O  0.63806753  0.55267904  0.04048936    -0.78500
O415        O  0.74632718  0.53856210  0.11453701    -0.79900
O416        O  0.73622842  0.62335061  0.03037468    -0.80100
Eu417      Eu  0.74131357  0.56027149  0.05161609     2.39200
O418        O  0.77650853  0.50795816  0.05124391    -0.87700
O419        O  0.70537706  0.56039463  0.99975307    -0.91300
C420        C  0.73390374  0.63924368  0.99919627     1.03400
C421        C  0.74841918  0.50738040  0.13028859     1.03300
C422        C  0.64901322  0.57502567  0.06469216     1.03200
C423        C  0.83398528  0.57261017  0.06475989     1.01100
H424        H  0.68820631  0.50918665  0.07381535     0.30800
O425        O  0.70307204  0.50890711  0.05214598    -1.00000
H426        H  0.79413922  0.58204956  0.99998745     0.30800
O427        O  0.77898342  0.56057720  0.99984222    -1.02600
O428        O  0.73084907  0.39435505  0.03178715    -0.79800
O429        O  0.74895082  0.54091620  0.88565944    -0.79300
O430        O  0.63574380  0.46886825  0.04359090    -0.77800
O431        O  0.84227223  0.46406272  0.04117903    -0.81100
O432        O  0.84557961  0.55122814  0.95881970    -0.79000
O433        O  0.63910218  0.55163015  0.95657452    -0.77600
O434        O  0.68059332  0.43898964  0.92444607    -0.79100
O435        O  0.79820043  0.43263937  0.92943085    -0.81100
O436        O  0.63686825  0.46842606  0.95663926    -0.77800
O437        O  0.84284808  0.46437751  0.95820460    -0.80500
O438        O  0.67851256  0.43911961  0.07648853    -0.76200
O439        O  0.68432368  0.58112543  0.92447104    -0.76300
O440        O  0.80283709  0.58481761  0.92986570    -0.75900
O441        O  0.79701796  0.43216226  0.07084378    -0.79400
O442        O  0.73156789  0.39475237  0.96969055    -0.78800
O443        O  0.74704425  0.47895898  0.88579793    -0.77100
Eu444      Eu  0.73852026  0.45662619  0.05209745     2.39800
Eu445      Eu  0.74271540  0.56113984  0.94803483     2.39600
Eu446      Eu  0.66695783  0.50937256  0.99966001     2.38400
Eu447      Eu  0.81415825  0.50764061  0.99958621     2.39900
Eu448      Eu  0.73971264  0.45727192  0.94829245     2.39800
O449        O  0.77790216  0.50869390  0.94787966    -0.91600
O450        O  0.70229951  0.45720062  0.00021158    -0.90500
C451        C  0.72853183  0.37888878  0.00085283     1.03600
C452        C  0.75038559  0.51008463  0.87006060     1.02300
C453        C  0.64558246  0.44691534  0.06889824     1.01700
C454        C  0.83057094  0.43936141  0.06356734     1.03700
C455        C  0.83577475  0.57681774  0.93719861     1.02600
C456        C  0.65078385  0.57415676  0.93198955     1.01500
C457        C  0.64741696  0.44640662  0.93191794     1.01600
C458        C  0.83158174  0.43970679  0.93646533     1.04200
H459        H  0.69035965  0.51002077  0.92591332     0.31500
O460        O  0.70459691  0.50963753  0.94760091    -1.03700
H461        H  0.78973661  0.43425955  0.00021535     0.33600
O462        O  0.77582536  0.45609751  0.00010267    -1.06300
O463        O  0.25089216  0.62058215  0.96278912    -0.78800
O464        O  0.23266658  0.47633942  0.11292847    -0.80400
O465        O  0.18351482  0.58341815  0.06596640    -0.77400
O466        O  0.30131899  0.57636986  0.07130103    -0.75800
O467        O  0.34499166  0.54665576  0.03929864    -0.77600
O468        O  0.13882628  0.55115186  0.03785375    -0.78500
O469        O  0.23539798  0.53830046  0.11145682    -0.79900
O470        O  0.24915115  0.62120298  0.02490006    -0.80100
Eu471      Eu  0.24202239  0.55858036  0.04777177     2.39200
O472        O  0.27666006  0.50592573  0.04892022    -0.87700
O473        O  0.20635410  0.55859038  0.99556565    -0.91300
C474        C  0.25239770  0.63673993  0.99349677     1.03400
C475        C  0.23180565  0.50752771  0.12808875     1.03300
C476        C  0.15013232  0.57603524  0.05930532     1.03200
C477        C  0.33446052  0.56892293  0.06376176     1.01100
H478        H  0.18714153  0.50774696  0.07002229     0.30800
O479        O  0.20317427  0.50733774  0.04921448    -1.00000
H480        H  0.29638804  0.57818168  0.99532279     0.30800
O481        O  0.28001310  0.55761081  0.99589522    -1.02600
O482        O  0.24183611  0.39144236  0.03086670    -0.79800
O483        O  0.23918242  0.53579111  0.88126634    -0.79300
O484        O  0.13519812  0.46341103  0.03741717    -0.77800
O485        O  0.34196687  0.46491627  0.04215953    -0.81100
O486        O  0.34678738  0.54344633  0.95127584    -0.79000
O487        O  0.14050082  0.55107479  0.95542701    -0.77600
O488        O  0.18057141  0.43149655  0.92809671    -0.79100
O489        O  0.29945858  0.43384953  0.92372963    -0.81100
O490        O  0.13725997  0.46526506  0.95620189    -0.77800
O491        O  0.34377740  0.46256920  0.95585059    -0.80500
O492        O  0.17755041  0.43061787  0.06772466    -0.76200
O493        O  0.18595519  0.58189705  0.92487667    -0.76300
O494        O  0.30428291  0.57308269  0.91805812    -0.75900
O495        O  0.29645925  0.43651867  0.07492009    -0.79400
O496        O  0.24254679  0.39081913  0.96875549    -0.78800
O497        O  0.23721937  0.47383562  0.88260887    -0.77100
Eu498      Eu  0.23809543  0.45466667  0.05038663     2.39800
Eu499      Eu  0.24410104  0.55741789  0.94370297     2.39600
Eu500      Eu  0.16758400  0.50738585  0.99720467     2.38400
Eu501      Eu  0.31472128  0.50518476  0.99718318     2.39900
Eu502      Eu  0.24034013  0.45371447  0.94639166     2.39800
O503        O  0.27884783  0.50485290  0.94498804    -0.91600
O504        O  0.20261136  0.45480684  0.99815443    -0.90500
C505        C  0.24359564  0.37522894  0.00018014     1.03600
C506        C  0.23658022  0.50473150  0.86602639     1.02300
C507        C  0.14462910  0.43800454  0.05952660     1.01700
C508        C  0.32998813  0.44345387  0.06749234     1.03700
C509        C  0.33718853  0.56476124  0.92524814     1.02600
C510        C  0.15244631  0.57523561  0.93264506     1.01500
C511        C  0.14754962  0.44009526  0.93474564     1.01600
C512        C  0.33275969  0.44045939  0.93149424     1.04200
H513        H  0.19000562  0.50640583  0.92443025     0.31500
O514        O  0.20524313  0.50631226  0.94542184    -1.03700
H515        H  0.29113854  0.43283434  0.99928225     0.33600
O516        O  0.27622445  0.45398195  0.99865302    -1.06300
C517        C  0.99438194  0.70695101  0.80664875     0.87800
C518        C  0.02613606  0.68321457  0.81755161    -0.52500
C519        C  0.02841945  0.67816546  0.85409951     0.10700
C520        C  0.99910075  0.69724474  0.87625666     0.21600
C521        C  0.96087836  0.68849983  0.82360372    -0.53200
C522        C  0.96346919  0.68315260  0.86006629     0.10800
C523        C  0.99957576  0.74203653  0.82730257    -0.52700
C524        C  0.00231112  0.73704783  0.86368212     0.11400
H525        H  0.04482402  0.67136274  0.79829658     0.15900
H526        H  0.00120984  0.69302108  0.90601028     0.01600
H527        H  0.93787458  0.67923642  0.80804938     0.16200
H528        H  0.00180316  0.76848629  0.81423071     0.16000
C529        C  0.98857242  0.30562477  0.81018587     0.87800
C530        C  0.95470454  0.32552324  0.82293790    -0.52500
C531        C  0.95523521  0.33386878  0.85886150     0.10700
C532        C  0.98925132  0.32133760  0.87866228     0.21600
C533        C  0.02045504  0.33019272  0.82058280    -0.53200
C534        C  0.02063171  0.33836470  0.85649314     0.10800
C535        C  0.99107331  0.27247589  0.83513832    -0.52700
C536        C  0.99159819  0.28072324  0.87094869     0.11400
H537        H  0.93288743  0.33312254  0.80510688     0.15900
H538        H  0.98966828  0.32805789  0.90791638     0.01600
H539        H  0.04091029  0.34016004  0.80142309     0.16200
H540        H  0.99306275  0.24499200  0.82535924     0.16000
C541        C  0.49350966  0.70208742  0.79942464     0.87800
C542        C  0.45983995  0.68276549  0.81532501    -0.52500
C543        C  0.46343999  0.64618650  0.81863469     0.10700
C544        C  0.50030580  0.63230307  0.80495452     0.21600
C545        C  0.52458658  0.69063780  0.82401428    -0.53200
C546        C  0.52800755  0.65402502  0.82694438     0.10800
C547        C  0.50096784  0.68394780  0.76328339    -0.52700
C548        C  0.50483626  0.64757638  0.76594162     0.11400
H549        H  0.43604690  0.69688983  0.82474769     0.15900
H550        H  0.50333542  0.60254561  0.80735128     0.01600
H551        H  0.54197842  0.70962388  0.83803158     0.16200
H552        H  0.50390829  0.69877556  0.73776668     0.16000
C553        C  0.48836521  0.70461958  0.19362595     0.87800
C554        C  0.52097555  0.69579738  0.16926244    -0.52500
C555        C  0.52271795  0.66002929  0.16090363     0.10700
C556        C  0.49212532  0.63654355  0.17751450     0.21600
C557        C  0.45523409  0.69047969  0.17320166    -0.53200
C558        C  0.45741703  0.65474917  0.16468652     0.10800
C559        C  0.49162178  0.67965134  0.22673002    -0.52700
C560        C  0.49377832  0.64409058  0.21824694     0.11400
H561        H  0.54078538  0.71579710  0.15970591     0.15900
H562        H  0.49384061  0.60744627  0.17068781     0.01600
H563        H  0.43261814  0.70721680  0.16561185     0.16200
H564        H  0.49303326  0.68929528  0.25437205     0.16000
C565        C  0.98699173  0.30933691  0.19518872     0.87800
C566        C  0.02049010  0.32708732  0.17717374    -0.52500
C567        C  0.01791718  0.33076009  0.14041075     0.10700
C568        C  0.98217956  0.31551510  0.12505915     0.21600
C569        C  0.95515596  0.33249390  0.18295218    -0.53200
C570        C  0.95280672  0.33577838  0.14614690     0.10800
C571        C  0.98182068  0.27328797  0.17627222    -0.52700
C572        C  0.97890105  0.27624576  0.13973668     0.11400
H573        H  0.04337202  0.33735758  0.19227191     0.15900
H574        H  0.97996837  0.31816928  0.09515605     0.01600
H575        H  0.93654381  0.34537365  0.20156681     0.16200
H576        H  0.97932485  0.24756775  0.19073863     0.16000
C577        C  0.99340997  0.70072083  0.19588397     0.87800
C578        C  0.96174989  0.67571305  0.18569039    -0.52500
C579        C  0.96093901  0.66838816  0.14957316     0.10700
C580        C  0.99142526  0.68655961  0.12711391     0.21600
C581        C  0.02741093  0.68186878  0.18184936    -0.53200
C582        C  0.02616429  0.67438748  0.14574700     0.10800
C583        C  0.98959766  0.73431571  0.17176007    -0.52700
C584        C  0.98837565  0.72683325  0.13582595     0.11400
H585        H  0.94182841  0.66504613  0.20504361     0.15900
H586        H  0.99045637  0.68054537  0.09771218     0.01600
H587        H  0.04991211  0.67450739  0.19890389     0.16200
H588        H  0.98717473  0.76151590  0.18219509     0.16000
C589        C  0.49275646  0.31713040  0.79672424     0.87800
C590        C  0.52602606  0.33048732  0.81744384    -0.52500
C591        C  0.52479253  0.36632903  0.82575678     0.10700
C592        C  0.49076275  0.38545433  0.81237628     0.21600
C593        C  0.46022207  0.32705785  0.82064028    -0.53200
C594        C  0.45936865  0.36288305  0.82881573     0.10800
C595        C  0.49058637  0.34195865  0.76339374    -0.52700
C596        C  0.48938886  0.37767297  0.77162554     0.11400
H597        H  0.54794490  0.31309356  0.82558903     0.15900
H598        H  0.48979683  0.41463230  0.81904036     0.01600
H599        H  0.43992649  0.30761314  0.83033301     0.16200
H600        H  0.48933099  0.33216226  0.73580035     0.16000
C601        C  0.48703314  0.31399498  0.19712241     0.87800
C602        C  0.45474457  0.32545885  0.17425940    -0.52500
C603        C  0.45266265  0.36202166  0.16988353     0.10700
C604        C  0.48260723  0.38360467  0.18868267     0.21600
C605        C  0.52021102  0.33106191  0.17813060    -0.53200
C606        C  0.51776326  0.36754473  0.17350240     0.10800
C607        C  0.48287386  0.33406078  0.23273087    -0.52700
C608        C  0.48021303  0.37041285  0.22836443     0.11400
H609        H  0.43560240  0.30657686  0.16247624     0.15900
H610        H  0.48060332  0.41336116  0.18503000     0.01600
H611        H  0.54293516  0.31562756  0.16817079     0.16200
H612        H  0.48092199  0.32060051  0.25905519     0.16000
O613        O  0.56160526  0.42840394  0.44233999    -0.78800
O614        O  0.46105411  0.49692927  0.60883964    -0.80400
O615        O  0.57897200  0.45970027  0.55971531    -0.77400
O616        O  0.47988867  0.39878633  0.53078792    -0.75800
O617        O  0.43232280  0.41069550  0.49350723    -0.77600
O618        O  0.59877086  0.51819427  0.55094749    -0.78500
O619        O  0.49869435  0.44981855  0.59673279    -0.79900
O620        O  0.55279198  0.40885451  0.50099221    -0.80100
Eu621      Eu  0.51802263  0.45379152  0.53313290     2.39200
O622        O  0.45818682  0.47473274  0.53292789    -0.87700
O623        O  0.55477969  0.49129935  0.49596531    -0.91300
C624        C  0.56435744  0.40480697  0.46836129     1.03400
C625        C  0.47827301  0.46822442  0.61788906     1.03300
C626        C  0.60265748  0.48553865  0.56230193     1.03200
C627        C  0.45082426  0.38971145  0.51402849     1.01100
H628        H  0.52678670  0.51292069  0.57855676     0.30800
O629        O  0.51727190  0.51319623  0.55437286    -1.00000
H630        H  0.49548771  0.42825255  0.46438772     0.30800
O631        O  0.49597409  0.45250410  0.47361833    -1.02600
O632        O  0.43183568  0.59587154  0.54827299    -0.79800
O633        O  0.52959809  0.52611966  0.38068444    -0.79300
O634        O  0.54813492  0.57917505  0.57806372    -0.77800
O635        O  0.38191329  0.47723837  0.51154656    -0.81100
O636        O  0.44178185  0.44696908  0.41224713    -0.79000
O637        O  0.60903163  0.54708158  0.47994652    -0.77600
O638        O  0.50974792  0.62554919  0.45871060    -0.79100
O639        O  0.41110522  0.56399362  0.42870862    -0.81100
O640        O  0.55673480  0.61437763  0.49698021    -0.77800
O641        O  0.39134760  0.50564435  0.43842803    -0.80500
O642        O  0.49001066  0.56957055  0.59850933    -0.76200
O643        O  0.59726682  0.50851281  0.43326812    -0.76300
O644        O  0.50018441  0.45518758  0.39195924    -0.75900
O645        O  0.39426382  0.51523018  0.55851396    -0.79400
O646        O  0.43976929  0.61553226  0.48952969    -0.78800
O647        O  0.49114357  0.57272371  0.39228481    -0.77100
Eu648      Eu  0.45771495  0.53468178  0.55368720     2.39800
Eu649      Eu  0.53371192  0.48919971  0.43650512     2.39600
Eu650      Eu  0.55363771  0.55104866  0.51712633     2.38400
Eu651      Eu  0.43663250  0.47389294  0.47316687     2.39900
Eu652      Eu  0.47235920  0.57002949  0.45601549     2.39800
O653        O  0.47405265  0.51042452  0.43568181    -0.91600
O654        O  0.49416531  0.57154249  0.51561313    -0.90500
C655        C  0.42912390  0.61958044  0.52246726     1.05200
C656        C  0.51167884  0.55430088  0.37127549     1.02300
C657        C  0.52248442  0.58158332  0.60210486     1.01700
C658        C  0.37303870  0.49460803  0.54031027     1.03700
C659        C  0.46739212  0.44409363  0.38836786     1.02600
C660        C  0.61829723  0.52914587  0.45167570     1.01500
C661        C  0.53823060  0.63510514  0.47619136     1.01600
C662        C  0.38730283  0.53807662  0.42649964     1.04200
H663        H  0.54770825  0.56459267  0.44150618     0.31500
O664        O  0.53252562  0.54941177  0.45697943    -1.03700
H665        H  0.41155504  0.54297343  0.49499392     0.33600
O666        O  0.43572041  0.53360516  0.49443995    -1.06300
O667        O  0.07064363  0.93808322  0.05847068    -0.78800
O668        O  0.00163814  0.03849112  0.89211396    -0.80400
O669        O  0.03905315  0.92045948  0.94140218    -0.77400
O670        O  0.10016828  0.01967312  0.97006599    -0.75800
O671        O  0.08837226  0.06733544  0.00726223    -0.77600
O672        O  0.98054883  0.90068380  0.95014124    -0.78500
O673        O  0.04881366  0.00087736  0.90410731    -0.79900
O674        O  0.09005505  0.94677279  0.99976289    -0.80100
Eu675      Eu  0.04509481  0.98161720  0.96771261     2.39200
O676        O  0.02410229  0.04148006  0.96789032    -0.87700
O677        O  0.00766094  0.94493281  0.00496011    -0.91300
C678        C  0.09414749  0.93522340  0.03239600     1.03400
C679        C  0.03030730  0.02124592  0.88299054     1.03300
C680        C  0.01322212  0.89673317  0.93887967     1.03200
C681        C  0.10931869  0.04873681  0.98678994     1.01100
H682        H  0.98585961  0.97286307  0.92244306     0.30800
O683        O  0.98562923  0.98238510  0.94662231    -1.00000
H684        H  0.07088748  0.00424733  0.03639484     0.30800
O685        O  0.04662147  0.00377378  0.02719621    -1.02600
O686        O  0.90299486  0.06821319  0.95326609    -0.79800
O687        O  0.97343459  0.97016589  0.12040627    -0.79300
O688        O  0.91977099  0.95143845  0.92287283    -0.77800
O689        O  0.02146429  0.11791295  0.98937396    -0.81100
O690        O  0.05185127  0.05819145  0.08868069    -0.79000
O691        O  0.95206093  0.89065623  0.02113202    -0.77600
O692        O  0.87349026  0.98951136  0.04255657    -0.79100
O693        O  0.93516959  0.08834348  0.07246703    -0.81100
O694        O  0.88464459  0.94263256  0.00415751    -0.77800
O695        O  0.99342948  0.10826093  0.06242111    -0.80500
O696        O  0.92910633  0.00963077  0.90252082    -0.76200
O697        O  0.99068516  0.90253377  0.06774045    -0.76300
O698        O  0.04380423  0.99976226  0.10893396    -0.75900
O699        O  0.98340003  0.10539681  0.94250988    -0.79400
O700        O  0.88347727  0.06017084  0.01204497    -0.78800
O701        O  0.92668274  0.00847014  0.10894228    -0.77100
Eu702      Eu  0.96403064  0.04191145  0.94736959     2.39800
Eu703      Eu  0.00996202  0.96606874  0.06437628     2.39600
Eu704      Eu  0.94787661  0.94597642  0.98387906     2.38400
Eu705      Eu  0.02515719  0.06309545  0.02762369     2.39900
Eu706      Eu  0.92896434  0.02713056  0.04512622     2.39800
O707        O  0.98868384  0.02566758  0.06516180    -0.91600
O708        O  0.92720060  0.00540547  0.98547143    -0.90500
C709        C  0.87940935  0.07105178  0.97918346     1.03600
C710        C  0.94527770  0.98805434  0.12992181     1.02300
C711        C  0.91723805  0.97710985  0.89885715     1.01700
C712        C  0.00396507  0.12672093  0.96066379     1.03700
C713        C  0.05470213  0.03260716  0.11259403     1.02600
C714        C  0.97005302  0.88145739  0.04938874     1.01500
C715        C  0.86393924  0.96102396  0.02505547     1.01600
C716        C  0.96105823  0.11219343  0.07453563     1.04200
H717        H  0.93458898  0.95182363  0.05959574     0.31500
O718        O  0.94968173  0.96703263  0.04406150    -1.03700
H719        H  0.95594373  0.08792091  0.00610809     0.33600
O720        O  0.96534182  0.06376812  0.00662410    -1.06300
C721        C  0.47215526  0.39274149  0.25889851    -0.17200
C722        C  0.46520089  0.40610313  0.28765829     0.06800
C723        C  0.45954155  0.41813965  0.32330356     0.08700
C724        C  0.45942983  0.42855783  0.35405263    -0.18100
C725        C  0.48493333  0.40489757  0.74393708    -0.17200
C726        C  0.48071930  0.42424575  0.71791763     0.06800
C727        C  0.47669333  0.44294364  0.68476587     0.08700
C728        C  0.47551835  0.45589434  0.65473840    -0.18100
C729        C  0.98206605  0.75470570  0.10929796    -0.17200
C730        C  0.97616865  0.78092184  0.09082859     0.06800
C731        C  0.97035029  0.81430182  0.07330997     0.08700
C732        C  0.96804113  0.84449521  0.06117964    -0.18100
C733        C  0.96977063  0.24461124  0.11895380    -0.17200
C734        C  0.96201468  0.21492005  0.10786945     0.06800
C735        C  0.95525844  0.17843920  0.09841702     0.08700
C736        C  0.95399917  0.14710545  0.08956731    -0.18100
C737        C  0.51375345  0.56616067  0.33422323    -0.17200
C738        C  0.51141144  0.57904648  0.30425154     0.06800
C739        C  0.50563916  0.59768141  0.27135914     0.08700
C740        C  0.49988158  0.61693534  0.24561291    -0.18100
C741        C  0.51482465  0.62727265  0.73424381    -0.17200
C742        C  0.52269191  0.61609300  0.70458802     0.06800
C743        C  0.52913943  0.60621068  0.66812589     0.08700
C744        C  0.52997947  0.59695921  0.63684530    -0.18100
C745        C  0.00646093  0.16349464  0.94814358    -0.17200
C746        C  0.00506013  0.19357312  0.93543877     0.06800
C747        C  0.00077609  0.22695238  0.91727530     0.08700
C748        C  0.99631844  0.25314521  0.89825027    -0.18100
C749        C  0.01003358  0.76724601  0.88666376    -0.17200
C750        C  0.01623575  0.79595621  0.90048804     0.06800
C751        C  0.02099861  0.83158197  0.91294676     0.08700
C752        C  0.02080503  0.86226263  0.92349277    -0.18100
C753        C  0.04793991  0.36108481  0.87224597    -0.17200
C754        C  0.07060828  0.37994647  0.88593589     0.06800
C755        C  0.09712384  0.40166223  0.90246568     0.08700
C756        C  0.11996306  0.41965882  0.91698639    -0.18100
C757        C  0.04430996  0.35194531  0.11937120    -0.17200
C758        C  0.06658823  0.37161471  0.10447315     0.06800
C759        C  0.09314533  0.39550311  0.08876882     0.08700
C760        C  0.11626903  0.41550416  0.07574154    -0.18100
C761        C  0.05391596  0.65456466  0.12719931    -0.17200
C762        C  0.07613577  0.63693076  0.11143524     0.06800
C763        C  0.10161006  0.61561547  0.09295474     0.08700
C764        C  0.12344592  0.59734860  0.07738136    -0.18100
C765        C  0.05554627  0.65608577  0.87032861    -0.17200
C766        C  0.07799009  0.63732991  0.88399916     0.06800
C767        C  0.10405632  0.61535967  0.90028761     0.08700
C768        C  0.12621295  0.59679363  0.91469293    -0.18100
C769        C  0.43171975  0.37813042  0.85151179    -0.17200
C770        C  0.40898080  0.39141690  0.87059091     0.06800
C771        C  0.38249535  0.40758350  0.89266018     0.08700
C772        C  0.35983439  0.42209227  0.91089202    -0.18100
C773        C  0.36529662  0.58004702  0.90188937    -0.17200
C774        C  0.38817737  0.59277075  0.88146042     0.06800
C775        C  0.41459872  0.60865767  0.85760913     0.08700
C776        C  0.43694421  0.62413062  0.83851035    -0.18100
C777        C  0.36175272  0.58688361  0.08458158    -0.17200
C778        C  0.38372452  0.60227148  0.10297410     0.06800
C779        C  0.40891993  0.62054659  0.12495291     0.08700
C780        C  0.43057045  0.63621660  0.14348056    -0.18100
C781        C  0.42534845  0.37892032  0.14854555    -0.17200
C782        C  0.40323791  0.39360712  0.13014427     0.06800
C783        C  0.37785506  0.41101368  0.10820658     0.08700
C784        C  0.35615165  0.42585222  0.08942467    -0.18100
C785        C  0.61756395  0.43056284  0.09108986    -0.17200
C786        C  0.59414582  0.41772303  0.11050712     0.06800
C787        C  0.56705872  0.40246434  0.13350954     0.08700
C788        C  0.54434904  0.38794278  0.15259881    -0.18100
C789        C  0.62204096  0.59498672  0.08379180    -0.17200
C790        C  0.59977605  0.61169438  0.10046262     0.06800
C791        C  0.57370186  0.63047086  0.12076251     0.08700
C792        C  0.55094701  0.64510755  0.13873349    -0.18100
C793        C  0.55461329  0.63735064  0.84973391    -0.17200
C794        C  0.57658401  0.62350158  0.86916866     0.06800
C795        C  0.60225290  0.60704559  0.89186365     0.08700
C796        C  0.62427902  0.59246173  0.91068725    -0.18100
C797        C  0.62016366  0.42921470  0.91031263    -0.17200
C798        C  0.59827807  0.41500456  0.89086305     0.06800
C799        C  0.57317872  0.39834555  0.86747551     0.08700
C800        C  0.55159444  0.38391013  0.84787174    -0.18100
C801        C  0.92594110  0.35761758  0.12867057    -0.17200
C802        C  0.90408383  0.37646297  0.11388527     0.06800
C803        C  0.87876406  0.39882192  0.09646824     0.08700
C804        C  0.85700870  0.41768865  0.08154561    -0.18100
C805        C  0.92771509  0.35534228  0.87587060    -0.17200
C806        C  0.90555459  0.37462061  0.88964961     0.06800
C807        C  0.88009272  0.39793586  0.90555025     0.08700
C808        C  0.85827022  0.41760541  0.91931908    -0.18100
C809        C  0.93678832  0.66198216  0.88005526    -0.17200
C810        C  0.91408143  0.64244018  0.89394810     0.06800
C811        C  0.88712466  0.61882666  0.90846367     0.08700
C812        C  0.86381370  0.59903328  0.92090545    -0.18100
C813        C  0.86158871  0.59158772  0.08398724    -0.17200
C814        C  0.88442415  0.60809219  0.10012271     0.06800
C815        C  0.91087044  0.62818564  0.11859651     0.08700
C816        C  0.93349201  0.64609181  0.13351809    -0.18100
C817        C  0.09330724  0.01336061  0.75699103    -0.17200
C818        C  0.07396831  0.01786407  0.78295229     0.06800
C819        C  0.05531239  0.02233302  0.81604805     0.08700
C820        C  0.04245033  0.02383037  0.84608438    -0.18100
C821        C  0.10508348  0.02729599  0.24233351    -0.17200
C822        C  0.09170438  0.03454172  0.21364850     0.06800
C823        C  0.07994229  0.04044611  0.17793823     0.08700
C824        C  0.06987944  0.04064745  0.14706100    -0.18100
C825        C  0.22425911  0.50798339  0.16635156    -0.17200
C826        C  0.21516878  0.50796759  0.19786238     0.06800
C827        C  0.20367298  0.50806173  0.23452784     0.08700
C828        C  0.19550295  0.50887544  0.26625746    -0.18100
C829        C  0.25475191  0.52989564  0.38199226    -0.17200
C830        C  0.28445472  0.53761740  0.39312076     0.06800
C831        C  0.32098508  0.54413335  0.40265221     0.08700
C832        C  0.35233511  0.54518760  0.41153074    -0.18100
C833        C  0.75622798  0.50674728  0.16816993    -0.17200
C834        C  0.76587058  0.50573466  0.19917869     0.06800
C835        C  0.77858205  0.50462969  0.23497787     0.08700
C836        C  0.78867693  0.50431056  0.26584914    -0.18100
C837        C  0.65527401  0.53123263  0.43991796    -0.17200
C838        C  0.68543114  0.52893218  0.42768667     0.06800
C839        C  0.71867470  0.52303667  0.40992833     0.08700
C840        C  0.74470104  0.51700348  0.39123557    -0.18100
C841        C  0.90187824  0.96959570  0.86407710    -0.17200
C842        C  0.89258867  0.97035904  0.83278683     0.06800
C843        C  0.88265252  0.97664978  0.79628154     0.08700
C844        C  0.87146494  0.98434963  0.76656421    -0.18100
C845        C  0.93364480  0.98606178  0.16705317    -0.17200
C846        C  0.92084701  0.98838272  0.19706664     0.06800
C847        C  0.90211719  0.99402080  0.22993655     0.08700
C848        C  0.88263316  0.99957385  0.25556273    -0.18100
C849        C  0.23067163  0.50480872  0.82767390    -0.17200
C850        C  0.22285634  0.50621487  0.79608119     0.06800
C851        C  0.21202122  0.50849752  0.75959268     0.08700
C852        C  0.20284879  0.50999526  0.72838842    -0.18100
C853        C  0.33628092  0.49188773  0.55279719    -0.17200
C854        C  0.30613751  0.49310441  0.56534903     0.06800
C855        C  0.27262610  0.49727552  0.58326776     0.08700
C856        C  0.24631486  0.50176275  0.60210566    -0.18100
C857        C  0.78711953  0.50738977  0.73342761    -0.17200
C858        C  0.77881743  0.50908249  0.76482439     0.06800
C859        C  0.76720583  0.51017577  0.80100444     0.08700
C860        C  0.75800710  0.51039825  0.83222352    -0.18100
C861        C  0.73166366  0.48905641  0.61537741    -0.17200
C862        C  0.70299013  0.48273576  0.60157150     0.06800
C863        C  0.66751487  0.47783981  0.58884081     0.08700
C864        C  0.63697101  0.47798747  0.57797146    -0.18100
C865        C  0.98934124  0.30429745  0.23461840    -0.17200
C866        C  0.99030726  0.29588607  0.26627420     0.06800
C867        C  0.99077557  0.28389531  0.30276569     0.08700
C868        C  0.99102754  0.27438506  0.33414434    -0.18100
C869        C  0.98872700  0.29611554  0.77175208    -0.17200
C870        C  0.99015722  0.28697471  0.74056680     0.06800
C871        C  0.99238479  0.27626108  0.70409030     0.08700
C872        C  0.99378714  0.26857265  0.67249754    -0.18100
C873        C  0.90210624  0.37510854  0.42173360    -0.17200
C874        C  0.88391584  0.39708397  0.40627219     0.06800
C875        C  0.86258826  0.42280134  0.38816231     0.08700
C876        C  0.84485348  0.44515474  0.37271688    -0.18100
C877        C  0.84247697  0.44292016  0.63035060    -0.17200
C878        C  0.86107011  0.42067607  0.61616339     0.06800
C879        C  0.88306905  0.39505998  0.59923875     0.08700
C880        C  0.90175529  0.37320920  0.58453840    -0.18100
C881        C  0.07861389  0.37957154  0.58301449    -0.17200
C882        C  0.09657954  0.40245947  0.59749023     0.06800
C883        C  0.11843878  0.42886508  0.61399663     0.08700
C884        C  0.13754734  0.45131054  0.62770556    -0.18100
C885        C  0.08456692  0.38192990  0.42495332    -0.17200
C886        C  0.10470905  0.40509529  0.41217319     0.06800
C887        C  0.12858950  0.43183183  0.39668727     0.08700
C888        C  0.14814618  0.45428082  0.38185476    -0.18100
C889        C  0.07604710  0.13944539  0.59088877    -0.17200
C890        C  0.09039049  0.11673837  0.60923897     0.06800
C891        C  0.10649035  0.09007118  0.63119787     0.08700
C892        C  0.11982880  0.06710557  0.64999904    -0.18100
C893        C  0.91833447  0.13430757  0.59932164    -0.17200
C894        C  0.90558300  0.11133084  0.61965466     0.06800
C895        C  0.88971160  0.08465377  0.64327668     0.08700
C896        C  0.87429653  0.06208638  0.66219033    -0.18100
C897        C  0.91111727  0.13675649  0.41696772    -0.17200
C898        C  0.89551252  0.11487866  0.39864042     0.06800
C899        C  0.87714484  0.08986260  0.37653190     0.08700
C900        C  0.86160884  0.06832196  0.35776803    -0.18100
C901        C  0.07321070  0.14189737  0.41223785    -0.17200
C902        C  0.08816974  0.12014157  0.39360973     0.06800
C903        C  0.10560627  0.09477546  0.37166731     0.08700
C904        C  0.12018201  0.07274776  0.35307277    -0.18100
C905        C  0.99149551  0.74285586  0.33194769    -0.17200
C906        C  0.99245443  0.73297581  0.30099281     0.06800
C907        C  0.99362416  0.71999123  0.26525936     0.08700
C908        C  0.99410452  0.70979685  0.23440068    -0.18100
C909        C  0.98871813  0.74038864  0.66827998    -0.17200
C910        C  0.98906155  0.73197504  0.69974303     0.06800
C911        C  0.99020488  0.72126771  0.73624422     0.08700
C912        C  0.99181867  0.71328189  0.76775822    -0.18100
C913        C  0.08075350  0.64215983  0.41728157    -0.17200
C914        C  0.09963480  0.62029575  0.40251595     0.06800
C915        C  0.12212271  0.59473945  0.38558649     0.08700
C916        C  0.14116812  0.57271021  0.37130597    -0.18100
C917        C  0.14440538  0.57109575  0.62363627    -0.17200
C918        C  0.12503652  0.59301127  0.60956834     0.06800
C919        C  0.10149703  0.61812600  0.59340951     0.08700
C920        C  0.08162119  0.63975598  0.57961249    -0.18100
C921        C  0.83758351  0.56149843  0.62042219    -0.17200
C922        C  0.85716331  0.58395903  0.60622375     0.06800
C923        C  0.88078567  0.61072203  0.59143941     0.08700
C924        C  0.90049498  0.63401287  0.57887291    -0.18100
C925        C  0.85266969  0.56581427  0.36587210    -0.17200
C926        C  0.87042307  0.58862443  0.38066711     0.06800
C927        C  0.89039896  0.61511541  0.39916497     0.08700
C928        C  0.90688991  0.63785022  0.41542876    -0.18100
C929        C  0.06834726  0.88171360  0.41047389    -0.17200
C930        C  0.08134711  0.90492814  0.39093627     0.06800
C931        C  0.09667186  0.93161400  0.36753913     0.08700
C932        C  0.11108552  0.95406655  0.34808410    -0.18100
C933        C  0.85368834  0.94806045  0.36213443    -0.17200
C934        C  0.86824496  0.92540306  0.38028150     0.06800
C935        C  0.88692904  0.89938195  0.40071106     0.08700
C936        C  0.90359379  0.87709516  0.41738101    -0.18100
C937        C  0.86143464  0.94401561  0.65114763    -0.17200
C938        C  0.87526679  0.92186542  0.63185918     0.06800
C939        C  0.89164307  0.89592863  0.60933429     0.08700
C940        C  0.90615184  0.87375618  0.59057432    -0.18100
C941        C  0.11413356  0.94677616  0.65304914    -0.17200
C942        C  0.09975641  0.92499669  0.63362325     0.06800
C943        C  0.08325356  0.89968062  0.61037022     0.08700
C944        C  0.06919711  0.87772608  0.59089727    -0.18100
C945        C  0.25770230  0.80294966  0.50140653    -0.17200
C946        C  0.22611211  0.79520393  0.50011401     0.06800
C947        C  0.18949524  0.78475133  0.49920638     0.08700
C948        C  0.15799681  0.77645416  0.49893849    -0.18100
C949        C  0.41407155  0.65406772  0.53033597    -0.17200
C950        C  0.40333887  0.68462882  0.53044505     0.06800
C951        C  0.39034490  0.71991727  0.52524429     0.08700
C952        C  0.37619244  0.74830264  0.51864947    -0.18100
C953        C  0.26100563  0.22083073  0.49761371    -0.17200
C954        C  0.22994888  0.23034976  0.49775742     0.06800
C955        C  0.19357822  0.24152802  0.49858990     0.08700
C956        C  0.16205207  0.24941214  0.49945794    -0.18100
C957        C  0.43815319  0.35303416  0.51744234    -0.17200
C958        C  0.42501441  0.32308251  0.51669140     0.06800
C959        C  0.40632533  0.28988735  0.51287849     0.08700
C960        C  0.38709223  0.26380141  0.50850425    -0.18100
C961        C  0.72043770  0.34108771  0.00110352    -0.17200
C962        C  0.71139827  0.30980412  0.00093361     0.06800
C963        C  0.70045499  0.27335564  0.00017002     0.08700
C964        C  0.69288865  0.24174143  0.99898565    -0.18100
C965        C  0.75068235  0.12466320  0.98262867    -0.17200
C966        C  0.77930686  0.11079670  0.97638543     0.06800
C967        C  0.81461294  0.09768402  0.97143995     0.08700
C968        C  0.84506052  0.08659661  0.97154237    -0.18100
C969        C  0.27805249  0.23811040  0.00279106    -0.17200
C970        C  0.26842249  0.26911376  0.00261406     0.06800
C971        C  0.25712623  0.30541755  0.00185938     0.08700
C972        C  0.24918410  0.33691105  0.00108071    -0.18100
C973        C  0.23549624  0.11190707  0.99227170    -0.17200
C974        C  0.20937856  0.09271181  0.98793468     0.06800
C975        C  0.17608499  0.07419688  0.98416242     0.08700
C976        C  0.14605262  0.06124957  0.98341440    -0.18100
C977        C  0.72393904  0.80473498  0.50408718    -0.17200
C978        C  0.75474681  0.79452764  0.50403832     0.06800
C979        C  0.79055667  0.78181940  0.50292023     0.08700
C980        C  0.82155380  0.77220675  0.50184669    -0.18100
C981        C  0.55016539  0.67207619  0.47338138    -0.17200
C982        C  0.56250952  0.70229264  0.47524434     0.06800
C983        C  0.58021141  0.73570370  0.48100597     0.08700
C984        C  0.59875623  0.76182598  0.48738192    -0.18100
C985        C  0.72610713  0.67716056  0.99868543    -0.17200
C986        C  0.71653550  0.70818073  0.99763341     0.06800
C987        C  0.70394242  0.74404987  0.99657061     0.08700
C988        C  0.69387497  0.77491502  0.99659506    -0.18100
C989        C  0.73748797  0.89988917  0.01348428    -0.17200
C990        C  0.76358967  0.91844045  0.01997607     0.06800
C991        C  0.79688392  0.93633563  0.02593296     0.08700
C992        C  0.82700622  0.94891969  0.02792275    -0.18100
C993        C  0.28569394  0.77518379  0.99741658    -0.17200
C994        C  0.27855070  0.74341918  0.99483123     0.06800
C995        C  0.26833077  0.70654710  0.99313016     0.08700
C996        C  0.25993171  0.67493092  0.99277954    -0.18100
C997        C  0.12882331  0.91985826  0.03956421    -0.17200
C998        C  0.15997155  0.91055351  0.03851851     0.06800
C999        C  0.19624556  0.90059219  0.03185831     0.08700
C1000       C  0.22572056  0.88930640  0.02384858    -0.18100
C1001       C  0.32265403  0.00739724  0.26942827    -0.17200
C1002       C  0.29126377  0.00747261  0.27794683     0.06800
C1003       C  0.25482142  0.00809176  0.28875801     0.08700
C1004       C  0.22335265  0.00927538  0.29680330    -0.18100
C1005       C  0.65891124  0.00956621  0.26235792    -0.17200
C1006       C  0.68995710  0.01039670  0.27189613     0.06800
C1007       C  0.72561318  0.01133500  0.28510248     0.08700
C1008       C  0.75618493  0.01147275  0.29605039    -0.18100
C1009       C  0.36994022  0.85423535  0.44587121    -0.17200
C1010       C  0.38434823  0.87431944  0.42392211     0.06800
C1011       C  0.39968403  0.89863256  0.39798866     0.08700
C1012       C  0.41260413  0.91881038  0.37522285    -0.18100
C1013       C  0.57752314  0.92685933  0.36980853    -0.17200
C1014       C  0.59409082  0.91023484  0.39221792     0.06800
C1015       C  0.61239667  0.88956550  0.41833317     0.08700
C1016       C  0.62656162  0.87098170  0.44090704    -0.18100
C1017       C  0.36677110  0.16151364  0.43939462    -0.17200
C1018       C  0.38133876  0.14241922  0.41745730     0.06800
C1019       C  0.39802475  0.11938116  0.39206518     0.08700
C1020       C  0.41210336  0.09992464  0.37012324    -0.18100
C1021       C  0.48940434  0.27507874  0.20295936    -0.17200
C1022       C  0.49081724  0.24365311  0.21115264     0.06800
C1023       C  0.49175637  0.20736370  0.22248572     0.08700
C1024       C  0.49199418  0.17609378  0.23147098    -0.18100
C1025       C  0.48816860  0.83992234  0.23785114    -0.17200
C1026       C  0.48729853  0.80893674  0.22814320     0.06800
C1027       C  0.48652657  0.77334364  0.21478600     0.08700
C1028       C  0.48666473  0.74277099  0.20386065    -0.18100
C1029       C  0.64412701  0.12861567  0.05469533    -0.17200
C1030       C  0.62420589  0.11408437  0.07669999     0.06800
C1031       C  0.60000813  0.09880638  0.10275391     0.08700
C1032       C  0.57986872  0.08602521  0.12561757    -0.18100
C1033       C  0.57141832  0.92193030  0.13016941    -0.17200
C1034       C  0.58816861  0.90537242  0.10783563     0.06800
C1035       C  0.60907677  0.88693380  0.08199070     0.08700
C1036       C  0.62788346  0.87262481  0.05968833    -0.18100
C1037       C  0.33996279  0.87783548  0.06509918    -0.17200
C1038       C  0.35901750  0.89171693  0.08745304     0.06800
C1039       C  0.38131245  0.90856877  0.11331118     0.08700
C1040       C  0.39990993  0.92360819  0.13530844    -0.18100
C1041       C  0.33732810  0.13279344  0.06177709    -0.17200
C1042       C  0.35622928  0.11832213  0.08395428     0.06800
C1043       C  0.37905731  0.10165861  0.10956443     0.08700
C1044       C  0.39842269  0.08751494  0.13155527    -0.18100
C1045       C  0.72359695  0.21284167  0.50345586    -0.17200
C1046       C  0.75535844  0.22016167  0.50578418     0.06800
C1047       C  0.79219480  0.23065119  0.50716974     0.08700
C1048       C  0.82378366  0.23921569  0.50735998    -0.18100
C1049       C  0.57527653  0.09867931  0.36561046    -0.17200
C1050       C  0.59018130  0.11740790  0.38758575     0.06800
C1051       C  0.60693397  0.13980290  0.41341815     0.08700
C1052       C  0.62079733  0.15885989  0.43577881    -0.18100
C1053       C  0.60957582  0.27299671  0.47719072    -0.17200
C1054       C  0.59844323  0.30251382  0.46906868     0.06800
C1055       C  0.58869386  0.33884241  0.46227331     0.08700
C1056       C  0.57957252  0.37005627  0.46115107    -0.18100
C1057       C  0.21949265  0.00481060  0.71353854    -0.17200
C1058       C  0.25076353  0.00533795  0.72247076     0.06800
C1059       C  0.28740868  0.00665733  0.73287291     0.08700
C1060       C  0.31906887  0.00777391  0.74033450    -0.18100
C1061       C  0.75720861  0.00857800  0.70590032    -0.17200
C1062       C  0.72549806  0.01035309  0.71360571     0.06800
C1063       C  0.68881823  0.01149595  0.72466619     0.08700
C1064       C  0.65732580  0.01183901  0.73354430    -0.18100
C1065       C  0.35977426  0.15538052  0.55957226    -0.17200
C1066       C  0.37356593  0.13616309  0.58190884     0.06800
C1067       C  0.39072758  0.11412179  0.60779918     0.08700
C1068       C  0.40594581  0.09605038  0.63013787    -0.18100
C1069       C  0.56354638  0.10521830  0.62712295    -0.17200
C1070       C  0.57557863  0.12559395  0.60383419     0.06800
C1071       C  0.59065030  0.14924760  0.57678451     0.08700
C1072       C  0.60581162  0.16825078  0.55415041    -0.18100
C1073       C  0.61631038  0.86180566  0.56104678    -0.17200
C1074       C  0.60112953  0.88010358  0.58322096     0.06800
C1075       C  0.58376565  0.90216934  0.60896514     0.08700
C1076       C  0.56904645  0.92085362  0.63112539    -0.18100
C1077       C  0.40806949  0.91932492  0.63344654    -0.17200
C1078       C  0.39333212  0.90045327  0.61164221     0.06800
C1079       C  0.37613710  0.87811434  0.58631726     0.08700
C1080       C  0.36159888  0.85923749  0.56439705    -0.18100
C1081       C  0.49335987  0.27868623  0.78726697    -0.17200
C1082       C  0.49255721  0.24744477  0.77829195     0.06800
C1083       C  0.49091725  0.21084953  0.76782996     0.08700
C1084       C  0.48969188  0.17921788  0.76032260    -0.18100
C1085       C  0.48739018  0.84132931  0.76793757    -0.17200
C1086       C  0.48757670  0.80983505  0.77672990     0.06800
C1087       C  0.48844288  0.77311001  0.78752969     0.08700
C1088       C  0.49006432  0.74135786  0.79498800    -0.18100
C1089       C  0.40225398  0.09286665  0.87031386    -0.17200
C1090       C  0.38445181  0.10823100  0.89274439     0.06800
C1091       C  0.36275700  0.12549213  0.91882609     0.08700
C1092       C  0.34376004  0.13932841  0.94130249    -0.18100
C1093       C  0.39321253  0.93462809  0.87356037    -0.17200
C1094       C  0.37284520  0.92269422  0.89688597     0.06800
C1095       C  0.34920221  0.90784005  0.92402994     0.08700
C1096       C  0.33020641  0.89284605  0.94675889    -0.18100
C1097       C  0.57753293  0.93019741  0.87036353    -0.17200
C1098       C  0.59633009  0.91552965  0.89246124     0.06800
C1099       C  0.61860556  0.89813694  0.91800072     0.08700
C1100       C  0.63709327  0.88289091  0.93996848    -0.18100
C1101       C  0.63923122  0.13641343  0.93635228    -0.17200
C1102       C  0.62038790  0.12172663  0.91452225     0.06800
C1103       C  0.59795550  0.10463979  0.88924282     0.08700
C1104       C  0.57895779  0.09011287  0.86743033    -0.18100
loop_ 
_geom_bond_atom_site_label_1 
_geom_bond_atom_site_label_2 
_geom_bond_distance 
_geom_bond_site_symmetry_2 
_ccdc_geom_bond_type 
O1           C12   1.289       .  A
O1          Eu37   2.452       .  S
O2           C13   1.291       .  A
O2          Eu36   2.470       .  S
O3           C14   1.290       .  A
O3           Eu9   2.462       .  S
O4           C15   1.290       .  A
O4           Eu9   2.458       .  S
O5           C15   1.291       .  A
O5          Eu39   2.468       .  S
O6           C14   1.291   1_565  A
O6          Eu38   2.466       .  S
O7           C13   1.292       .  A
O7           Eu9   2.471       .  S
O8           C12   1.289       .  A
O8           Eu9   2.455       .  S
Eu9          O19   2.360       .  S
Eu9          O11   2.356       .  S
Eu9          O10   2.348       .  S
Eu9          O17   2.356       .  S
O10         Eu39   2.352       .  S
O10         Eu36   2.355       .  S
O11         Eu37   2.359       .  S
O11         Eu38   2.349   1_545  S
C12        C1104   1.430       .  S
C13        C1069   1.446       .  S
C14        C1064   1.437       .  S
C15        C1084   1.437       .  S
H16          O17   0.965       .  S
O17         Eu38   2.364   1_545  S
O17         Eu36   2.346       .  S
H18          O19   0.964       .  S
O19         Eu37   2.352       .  S
O19         Eu39   2.357       .  S
O20          C43   1.289       .  A
O20         Eu36   2.455   1_565  S
O21          C44   1.291       .  A
O21         Eu37   2.469   1_565  S
O22          C45   1.289       .  A
O22         Eu38   2.456       .  S
O23          C46   1.289       .  A
O23         Eu39   2.456       .  S
O24          C47   1.289       .  A
O24         Eu39   2.456       .  S
O25          C48   1.289       .  A
O25         Eu38   2.457       .  S
O26          C49   1.290       .  A
O26         Eu40   2.460       .  S
O27          C50   1.290   1_565  A
O27         Eu40   2.459       .  S
O28          C49   1.291       .  A
O28         Eu38   2.464       .  S
O29          C50   1.291       .  A
O29         Eu39   2.469       .  S
O30          C45   1.291       .  A
O30         Eu36   2.470   1_565  S
O31          C48   1.291       .  A
O31         Eu37   2.469   1_565  S
O32          C47   1.290       .  A
O32         Eu37   2.461       .  S
O33          C46   1.290       .  A
O33         Eu36   2.462       .  S
O34          C43   1.289       .  A
O34         Eu40   2.455       .  S
O35          C44   1.291       .  A
O35         Eu40   2.470       .  S
Eu36         O54   2.352       .  S
Eu36         O42   2.359   1_545  S
Eu37         O41   2.355       .  S
Eu37         O52   2.344   1_545  S
Eu38         O52   2.364       .  S
Eu38         O42   2.351       .  S
Eu39         O41   2.352       .  S
Eu39         O54   2.357       .  S
Eu40         O41   2.348   1_565  S
Eu40         O52   2.357       .  S
Eu40         O54   2.359   1_565  S
Eu40         O42   2.357       .  S
C43        C1077   1.431       .  S
C44        C1093   1.445       .  S
C45        C1076   1.439       .  S
C46        C1068   1.435       .  S
C47        C1089   1.435       .  S
C48        C1097   1.439       .  S
C49        C1085   1.436       .  S
C50        C1060   1.438       .  S
H51          O52   0.965       .  S
H53          O54   0.964       .  S
C55          C56   1.533       .  S
C55          C61   1.526       .  S
C55          C59   1.536       .  S
C55        C1045   1.469       .  S
C56          H63   1.087       .  S
C56          C57   1.366       .  D
C57          C58   1.546       .  S
C57        C1072   1.451       .  S
C58          C62   1.546       .  S
C58          C60   1.539       .  S
C58          H64   1.111       .  S
C59          H65   1.086       .  S
C59          C60   1.366       .  D
C60        C1052   1.444       .  S
C61          H66   1.087       .  S
C61          C62   1.359       .  D
C62        C1053   1.446       .  S
O67          C78   1.291       .  A
O67        Eu103   2.463       .  S
O68          C79   1.291       .  A
O68        Eu102   2.464       .  S
O69          C80   1.289       .  A
O69         Eu75   2.455       .  S
O70          C81   1.287       .  A
O70         Eu75   2.447       .  S
O71          C81   1.288       .  A
O71        Eu105   2.447       .  S
O72          C80   1.290   1_565  A
O72        Eu104   2.461       .  S
O73          C79   1.290       .  A
O73         Eu75   2.459       .  S
O74          C78   1.290       .  A
O74         Eu75   2.463       .  S
Eu75         O85   2.353       .  S
Eu75         O77   2.344       .  S
Eu75         O76   2.355       .  S
Eu75         O83   2.353       .  S
O76        Eu105   2.353       .  S
O76        Eu102   2.350       .  S
O77        Eu103   2.349       .  S
O77        Eu104   2.347   1_545  S
C78        C1049   1.438       .  S
C79        C1032   1.436       .  S
C80        C1005   1.436       .  S
C81        C1024   1.425       .  S
H82          O83   0.966       .  S
O83        Eu104   2.352   1_545  S
O83        Eu102   2.368       .  S
H84          O85   0.965       .  S
O85        Eu103   2.360       .  S
O85        Eu105   2.350       .  S
O86         C109   1.290       .  A
O86        Eu102   2.463   1_565  S
O87         C110   1.291       .  A
O87        Eu103   2.465   1_565  S
O88         C111   1.289       .  A
O88        Eu104   2.454       .  S
O89         C112   1.290       .  A
O89        Eu105   2.460       .  S
O90         C113   1.290       .  A
O90        Eu105   2.460       .  S
O91         C114   1.289       .  A
O91        Eu104   2.453       .  S
O92         C115   1.288       .  A
O92        Eu106   2.453       .  S
O93         C116   1.287   1_565  A
O93        Eu106   2.446       .  S
O94         C115   1.290       .  A
O94        Eu104   2.461       .  S
O95         C116   1.288       .  A
O95        Eu105   2.447       .  S
O96         C111   1.290       .  A
O96        Eu102   2.461   1_565  S
O97         C114   1.290       .  A
O97        Eu103   2.460   1_565  S
O98         C113   1.292       .  A
O98        Eu103   2.473       .  S
O99         C112   1.292       .  A
O99        Eu102   2.474       .  S
O100        C109   1.290       .  A
O100       Eu106   2.463       .  S
O101        C110   1.290       .  A
O101       Eu106   2.459       .  S
Eu102       O120   2.360       .  S
Eu102       O108   2.348   1_545  S
Eu103       O107   2.349       .  S
Eu103       O118   2.368   1_545  S
Eu104       O118   2.353       .  S
Eu104       O108   2.347       .  S
Eu105       O107   2.353       .  S
Eu105       O120   2.351       .  S
Eu106       O107   2.354   1_565  S
Eu106       O118   2.354       .  S
Eu106       O120   2.353   1_565  S
Eu106       O108   2.344       .  S
C109       C1040   1.438       .  S
C110       C1012   1.436       .  S
C111       C1033   1.433       .  S
C112       C1044   1.441       .  S
C113       C1020   1.441       .  S
C114       C1013   1.433       .  S
C115       C1025   1.435       .  S
C116       C1001   1.425       .  S
H117        O118   0.966       .  S
H119        O120   0.965       .  S
C121        C122   1.532   1_554  S
C121        C127   1.526       .  S
C121        C125   1.536       .  S
C121        C993   1.469   1_554  S
C122        H129   1.087       .  S
C122        C123   1.365       .  D
C123        C124   1.546   1_556  S
C123       C1096   1.451       .  S
C124        C128   1.546       .  S
C124        C126   1.540       .  S
C124        H130   1.111       .  S
C125        H131   1.086       .  S
C125        C126   1.366       .  D
C126       C1037   1.444       .  S
C127        H132   1.087       .  S
C127        C128   1.359       .  D
C128       C1000   1.445       .  S
C133        C134   1.537   1_556  S
C133        C139   1.530   1_556  S
C133        C137   1.536       .  S
C133        C988   1.470       .  S
C134        H141   1.086       .  S
C134        C135   1.365       .  D
C135        C136   1.534       .  S
C135       C1036   1.439       .  S
C136        C140   1.537       .  S
C136        C138   1.538   1_554  S
C136        H142   1.112       .  S
C137        H143   1.086       .  S
C137        C138   1.367       .  D
C138       C1100   1.445       .  S
C139        H144   1.087       .  S
C139        C140   1.361       .  D
C140        C989   1.441       .  S
C145        C146   1.536       .  S
C145        C151   1.530       .  S
C145        C149   1.536       .  S
C145        C977   1.469       .  S
C146        H153   1.086       .  S
C146        C147   1.365       .  D
C147        C148   1.534       .  S
C147       C1016   1.439       .  S
C148        C152   1.537       .  S
C148        C150   1.538       .  S
C148        H154   1.112       .  S
C149        H155   1.086       .  S
C149        C150   1.367       .  D
C150       C1073   1.445       .  S
C151        H156   1.087       .  S
C151        C152   1.361       .  D
C152        C984   1.440       .  S
C157        C158   1.537       .  S
C157        C163   1.530   1_554  S
C157        C161   1.536   1_554  S
C157        C969   1.469       .  S
C158        H165   1.086       .  S
C158        C159   1.367       .  D
C159        C160   1.539   1_554  S
C159       C1041   1.447       .  S
C160        C164   1.537       .  S
C160        C162   1.535       .  S
C160        H166   1.112       .  S
C161        H167   1.086       .  S
C161        C162   1.365       .  D
C162       C1092   1.440       .  S
C163        H168   1.087       .  S
C163        C164   1.361       .  D
C164        C973   1.440       .  S
C169        C170   1.534       .  S
C169        C175   1.526       .  S
C169        C173   1.531   1_556  S
C169        C964   1.459       .  S
C170        H177   1.087       .  S
C170        C171   1.364       .  D
C171        C172   1.535       .  S
C171       C1101   1.436       .  S
C172        C176   1.540       .  S
C172        C174   1.541   1_556  S
C172        H178   1.112       .  S
C173        H179   1.087       .  S
C173        C174   1.364       .  D
C174       C1029   1.442       .  S
C175        H180   1.087       .  S
C175        C176   1.359       .  D
C176        C965   1.440       .  S
C181        C182   1.537       .  S
C181        C187   1.530       .  S
C181        C185   1.537       .  S
C181        C953   1.470       .  S
C182        H189   1.086       .  S
C182        C183   1.367       .  D
C183        C184   1.539       .  S
C183       C1017   1.447       .  S
C184        C188   1.537       .  S
C184        C186   1.535       .  S
C184        H190   1.112       .  S
C185        H191   1.086       .  S
C185        C186   1.365       .  D
C186       C1065   1.441       .  S
C187        H192   1.087       .  S
C187        C188   1.361       .  D
C188        C960   1.440       .  S
C193        C194   1.534       .  S
C193        C199   1.526       .  S
C193        C197   1.531       .  S
C193        C945   1.460       .  S
C194        H201   1.087       .  S
C194        C195   1.364       .  D
C195        C196   1.535       .  S
C195       C1080   1.437       .  S
C196        C200   1.540       .  S
C196        C198   1.541       .  S
C196        H202   1.112       .  S
C197        H203   1.087       .  S
C197        C198   1.364       .  D
C198       C1009   1.442       .  S
C199        H204   1.087       .  S
C199        C200   1.359       .  D
C200        C952   1.439       .  S
O205        C216   1.288       .  A
O205       Eu241   2.454       .  S
O206        C217   1.288   1_455  A
O206       Eu240   2.450       .  S
O207        C218   1.289       .  A
O207       Eu213   2.455       .  S
O208        C219   1.289       .  A
O208       Eu213   2.453       .  S
O209        C219   1.290       .  A
O209       Eu243   2.459       .  S
O210        C218   1.290       .  A
O210       Eu242   2.461       .  S
O211        C217   1.289       .  A
O211       Eu213   2.459       .  S
O212        C216   1.290       .  A
O212       Eu213   2.463       .  S
Eu213       O223   2.352       .  S
Eu213       O215   2.346       .  S
Eu213       O214   2.350       .  S
Eu213       O221   2.353       .  S
O214       Eu243   2.347       .  S
O214       Eu240   2.345   1_655  S
O215       Eu241   2.343       .  S
O215       Eu242   2.347       .  S
C216        C980   1.436       .  S
C217        C905   1.433       .  S
C218        C936   1.434       .  S
C219        C928   1.431       .  S
H220        O221   0.965       .  S
O221       Eu242   2.369       .  S
O221       Eu240   2.356   1_655  S
H222        O223   0.966       .  S
O223       Eu241   2.352       .  S
O223       Eu243   2.369       .  S
O224        C247   1.288       .  A
O224       Eu240   2.448       .  S
O225        C248   1.287       .  A
O225       Eu241   2.443       .  S
O226        C249   1.290       .  A
O226       Eu242   2.459   1_455  S
O227        C250   1.291       .  A
O227       Eu243   2.464   1_455  S
O228        C251   1.290       .  A
O228       Eu243   2.459       .  S
O229        C252   1.291       .  A
O229       Eu242   2.464       .  S
O230        C253   1.290       .  A
O230       Eu244   2.458       .  S
O231        C254   1.289       .  A
O231       Eu244   2.457       .  S
O232        C253   1.292       .  A
O232       Eu242   2.472   1_455  S
O233        C254   1.292       .  A
O233       Eu243   2.471   1_455  S
O234        C249   1.290       .  A
O234       Eu240   2.459       .  S
O235        C252   1.291       .  A
O235       Eu241   2.465       .  S
O236        C251   1.290       .  A
O236       Eu241   2.461       .  S
O237        C250   1.291       .  A
O237       Eu240   2.465       .  S
O238        C247   1.288       .  A
O238       Eu244   2.450       .  S
O239        C248   1.287   1_455  A
O239       Eu244   2.446       .  S
Eu240       O258   2.350       .  S
Eu240       O246   2.354       .  S
Eu241       O245   2.355       .  S
Eu241       O256   2.354       .  S
Eu242       O256   2.359       .  S
Eu242       O246   2.350   1_655  S
Eu243       O245   2.349       .  S
Eu243       O258   2.359   1_655  S
Eu244       O245   2.353   1_455  S
Eu244       O256   2.351   1_455  S
Eu244       O258   2.348       .  S
Eu244       O246   2.351       .  S
C247        C948   1.428       .  S
C248        C909   1.424       .  S
C249        C929   1.434       .  S
C250        C913   1.439       .  S
C251        C924   1.434       .  S
C252        C940   1.439       .  S
C253        C944   1.439       .  S
C254        C920   1.438       .  S
H255        O256   0.964       .  S
H257        O258   0.965       .  S
O259        C270   1.290       .  A
O259       Eu295   2.461       .  S
O260        C271   1.290   1_455  A
O260       Eu294   2.461       .  S
O261        C272   1.289       .  A
O261       Eu267   2.455       .  S
O262        C273   1.289       .  A
O262       Eu267   2.454       .  S
O263        C273   1.291       .  A
O263       Eu297   2.469       .  S
O264        C272   1.291       .  A
O264       Eu296   2.466       .  S
O265        C271   1.291       .  A
O265       Eu267   2.465       .  S
O266        C270   1.291       .  A
O266       Eu267   2.466       .  S
Eu267       O277   2.362       .  S
Eu267       O269   2.350       .  S
Eu267       O268   2.350       .  S
Eu267       O275   2.363       .  S
O268       Eu297   2.360       .  S
O268       Eu294   2.358   1_655  S
O269       Eu295   2.357       .  S
O269       Eu296   2.360       .  S
C270       C1048   1.437       .  S
C271        C868   1.436       .  S
C272        C873   1.436       .  S
C273        C897   1.438       .  S
H274        O275   0.965       .  S
O275       Eu296   2.342       .  S
O275       Eu294   2.356   1_655  S
H276        O277   0.966       .  S
O277       Eu295   2.353       .  S
O277       Eu297   2.344       .  S
O278        C301   1.290       .  A
O278       Eu294   2.463       .  S
O279        C302   1.289       .  A
O279       Eu295   2.456       .  S
O280        C303   1.292       .  A
O280       Eu296   2.475   1_455  S
O281        C304   1.289       .  A
O281       Eu297   2.454   1_455  S
O282        C305   1.292       .  A
O282       Eu297   2.475       .  S
O283        C306   1.289       .  A
O283       Eu296   2.455       .  S
O284        C307   1.289       .  A
O284       Eu298   2.457       .  S
O285        C308   1.290       .  A
O285       Eu298   2.460       .  S
O286        C307   1.289       .  A
O286       Eu296   2.454   1_455  S
O287        C308   1.290       .  A
O287       Eu297   2.460   1_455  S
O288        C303   1.292       .  A
O288       Eu294   2.474       .  S
O289        C306   1.288       .  A
O289       Eu295   2.451       .  S
O290        C305   1.291       .  A
O290       Eu295   2.469       .  S
O291        C304   1.289       .  A
O291       Eu294   2.453       .  S
O292        C301   1.291       .  A
O292       Eu298   2.466       .  S
O293        C302   1.290   1_455  A
O293       Eu298   2.463       .  S
Eu294       O312   2.361       .  S
Eu294       O300   2.347       .  S
Eu295       O299   2.348       .  S
Eu295       O310   2.359       .  S
Eu296       O310   2.353       .  S
Eu296       O300   2.355   1_655  S
Eu297       O299   2.353       .  S
Eu297       O312   2.355   1_655  S
Eu298       O299   2.352   1_455  S
Eu298       O310   2.358   1_455  S
Eu298       O312   2.356       .  S
Eu298       O300   2.352       .  S
C301        C956   1.438       .  S
C302        C872   1.434       .  S
C303        C885   1.450       .  S
C304        C901   1.430       .  S
C305        C893   1.448       .  S
C306        C880   1.430       .  S
C307        C881   1.432       .  S
C308        C889   1.436       .  S
H309        O310   0.964       .  S
H311        O312   0.965       .  S
C313        C314   1.533       .  S
C313        C319   1.525       .  S
C313        C317   1.529       .  S
C313        C857   1.454       .  S
C314        H321   1.087       .  S
C314        C315   1.364       .  D
C315        C316   1.536       .  S
C315        C877   1.435       .  S
C316        C320   1.540       .  S
C316        C318   1.541       .  S
C316        H322   1.111       .  S
C317        H323   1.087       .  S
C317        C318   1.363       .  D
C318        C921   1.440       .  S
C319        H324   1.087       .  S
C319        C320   1.358       .  D
C320        C861   1.438       .  S
C325        C326   1.536       .  S
C325        C331   1.529       .  S
C325        C329   1.535       .  S
C325        C852   1.468       .  S
C326        H333   1.086       .  S
C326        C327   1.367       .  D
C327        C328   1.538       .  S
C327        C917   1.444       .  S
C328        C332   1.537       .  S
C328        C330   1.535       .  S
C328        H334   1.112       .  S
C329        H335   1.087       .  S
C329        C330   1.364       .  D
C330        C884   1.438       .  S
C331        H336   1.087       .  S
C331        C332   1.361       .  D
C332        C856   1.439       .  S
C337        C338   1.537   1_545  S
C337        C343   1.530       .  S
C337        C341   1.537       .  S
C337       C1008   1.469       .  S
C338        H345   1.086       .  S
C338        C339   1.365       .  D
C339        C340   1.534   1_565  S
C339        C933   1.439       .  S
C340        C344   1.535       .  S
C340        C342   1.537       .  S
C340        H346   1.112       .  S
C341        H347   1.086       .  S
C341        C342   1.367       .  D
C342        C900   1.444       .  S
C343        H348   1.087       .  S
C343        C344   1.360       .  D
C344        C848   1.438   1_545  S
C349        C350   1.534       .  S
C349        C355   1.525   1_545  S
C349        C353   1.536   1_545  S
C349       C1061   1.470       .  S
C350        H357   1.087       .  S
C350        C351   1.367       .  D
C351        C352   1.547   1_545  S
C351        C896   1.453       .  S
C352        C356   1.547       .  S
C352        C354   1.540       .  S
C352        H358   1.111       .  S
C353        H359   1.086       .  S
C353        C354   1.367       .  D
C354        C937   1.446       .  S
C355        H360   1.088       .  S
C355        C356   1.358       .  D
C356        C844   1.447       .  S
C361        C362   1.536       .  S
C361        C367   1.530       .  S
C361        C365   1.535       .  S
C361        C836   1.465       .  S
C362        H369   1.086       .  S
C362        C363   1.364       .  D
C363        C364   1.534       .  S
C363        C925   1.437       .  S
C364        C368   1.535       .  S
C364        C366   1.537       .  S
C364        H370   1.112       .  S
C365        H371   1.086       .  S
C365        C366   1.366       .  D
C366        C876   1.442       .  S
C367        H372   1.087       .  S
C367        C368   1.360       .  D
C368        C840   1.437       .  S
C373        C374   1.534       .  S
C373        C379   1.525       .  S
C373        C377   1.536       .  S
C373        C828   1.470       .  S
C374        H381   1.086       .  S
C374        C375   1.367       .  D
C375        C376   1.548       .  S
C375        C888   1.455       .  S
C376        C380   1.548       .  S
C376        C378   1.540       .  S
C376        H382   1.111       .  S
C377        H383   1.086       .  S
C377        C378   1.366       .  D
C378        C916   1.445       .  S
C379        H384   1.088       .  S
C379        C380   1.358       .  D
C380        C829   1.447       .  S
C385        C386   1.534       .  S
C385        C391   1.525       .  S
C385        C389   1.530   1_545  S
C385       C1004   1.457       .  S
C386        H393   1.087       .  S
C386        C387   1.364       .  D
C387        C388   1.535       .  S
C387        C904   1.436       .  S
C388        C392   1.539       .  S
C388        C390   1.541   1_545  S
C388        H394   1.112       .  S
C389        H395   1.087       .  S
C389        C390   1.363       .  D
C390        C932   1.440       .  S
C391        H396   1.087       .  S
C391        C392   1.358       .  D
C392        C821   1.437       .  S
C397        C398   1.536   1_545  S
C397        C403   1.530       .  S
C397        C401   1.537       .  S
C397       C1057   1.471       .  S
C398        H405   1.086       .  S
C398        C399   1.367       .  D
C399        C400   1.538   1_565  S
C399        C941   1.445       .  S
C400        C404   1.536       .  S
C400        C402   1.535       .  S
C400        H406   1.112       .  S
C401        H407   1.086       .  S
C401        C402   1.365       .  D
C402        C892   1.442       .  S
C403        H408   1.087       .  S
C403        C404   1.362       .  D
C404        C817   1.438       .  S
O409        C420   1.288       .  A
O409       Eu445   2.453       .  S
O410        C421   1.288       .  A
O410       Eu444   2.448       .  S
O411        C422   1.289       .  A
O411       Eu417   2.456       .  S
O412        C423   1.289       .  A
O412       Eu417   2.456       .  S
O413        C423   1.290       .  A
O413       Eu447   2.459   1_554  S
O414        C422   1.290       .  A
O414       Eu446   2.461   1_554  S
O415        C421   1.289       .  A
O415       Eu417   2.458       .  S
O416        C420   1.290   1_554  A
O416       Eu417   2.464       .  S
Eu417       O427   2.351   1_554  S
Eu417       O419   2.345   1_554  S
Eu417       O418   2.350       .  S
Eu417       O425   2.353       .  S
O418       Eu447   2.348   1_554  S
O418       Eu444   2.346       .  S
O419       Eu445   2.342       .  S
O419       Eu446   2.347       .  S
C420        C985   1.437       .  S
C421        C833   1.432       .  S
C422        C789   1.434       .  S
C423        C813   1.432       .  S
H424        O425   0.965       .  S
O425       Eu446   2.368   1_554  S
O425       Eu444   2.354       .  S
H426        O427   0.966       .  S
O427       Eu445   2.351       .  S
O427       Eu447   2.369       .  S
O428        C451   1.287       .  A
O428       Eu444   2.447       .  S
O429        C452   1.286       .  A
O429       Eu445   2.440       .  S
O430        C453   1.290       .  A
O430       Eu446   2.459   1_554  S
O431        C454   1.291       .  A
O431       Eu447   2.464   1_554  S
O432        C455   1.290       .  A
O432       Eu447   2.461       .  S
O433        C456   1.290       .  A
O433       Eu446   2.463       .  S
O434        C457   1.289       .  A
O434       Eu448   2.458       .  S
O435        C458   1.289       .  A
O435       Eu448   2.458       .  S
O436        C457   1.292       .  A
O436       Eu446   2.473       .  S
O437        C458   1.292       .  A
O437       Eu447   2.470       .  S
O438        C453   1.290       .  A
O438       Eu444   2.460       .  S
O439        C456   1.290       .  A
O439       Eu445   2.461       .  S
O440        C455   1.290       .  A
O440       Eu445   2.461       .  S
O441        C454   1.290       .  A
O441       Eu444   2.463       .  S
O442        C451   1.288   1_556  A
O442       Eu448   2.448       .  S
O443        C452   1.287       .  A
O443       Eu448   2.443       .  S
Eu444       O462   2.351       .  S
Eu444       O450   2.352       .  S
Eu445       O449   2.354       .  S
Eu445       O460   2.355       .  S
Eu446       O460   2.359       .  S
Eu446       O450   2.349   1_556  S
Eu447       O449   2.348       .  S
Eu447       O462   2.360   1_556  S
Eu448       O449   2.353       .  S
Eu448       O460   2.350       .  S
Eu448       O462   2.348   1_556  S
Eu448       O450   2.350   1_556  S
C451        C961   1.426       .  S
C452        C860   1.421       .  S
C453        C785   1.435       .  S
C454        C804   1.438       .  S
C455        C812   1.435       .  S
C456        C796   1.437       .  S
C457        C797   1.440       .  S
C458        C808   1.438       .  S
H459        O460   0.964       .  S
H461        O462   0.965       .  S
O463        C474   1.290       .  A
O463       Eu499   2.461       .  S
O464        C475   1.290       .  A
O464       Eu498   2.461       .  S
O465        C476   1.289       .  A
O465       Eu471   2.454       .  S
O466        C477   1.289       .  A
O466       Eu471   2.455       .  S
O467        C477   1.291       .  A
O467       Eu501   2.467   1_554  S
O468        C476   1.291       .  A
O468       Eu500   2.466   1_554  S
O469        C475   1.291       .  A
O469       Eu471   2.467       .  S
O470        C474   1.291   1_554  A
O470       Eu471   2.466       .  S
Eu471       O481   2.362   1_554  S
Eu471       O473   2.350   1_554  S
Eu471       O472   2.349       .  S
Eu471       O479   2.362       .  S
O472       Eu501   2.359   1_554  S
O472       Eu498   2.357       .  S
O473       Eu499   2.357       .  S
O473       Eu500   2.360       .  S
C474        C996   1.437       .  S
C475        C825   1.437       .  S
C476        C764   1.436       .  S
C477        C777   1.437       .  S
H478        O479   0.965       .  S
O479       Eu500   2.343   1_554  S
O479       Eu498   2.356       .  S
H480        O481   0.966       .  S
O481       Eu499   2.355       .  S
O481       Eu501   2.344       .  S
O482        C505   1.290       .  A
O482       Eu498   2.463       .  S
O483        C506   1.289       .  A
O483       Eu499   2.458       .  S
O484        C507   1.292       .  A
O484       Eu500   2.474   1_554  S
O485        C508   1.289       .  A
O485       Eu501   2.454   1_554  S
O486        C509   1.292       .  A
O486       Eu501   2.474       .  S
O487        C510   1.289       .  A
O487       Eu500   2.454       .  S
O488        C511   1.289       .  A
O488       Eu502   2.454       .  S
O489        C512   1.290       .  A
O489       Eu502   2.459       .  S
O490        C511   1.289       .  A
O490       Eu500   2.456       .  S
O491        C512   1.290       .  A
O491       Eu501   2.459       .  S
O492        C507   1.292       .  A
O492       Eu498   2.472       .  S
O493        C510   1.289       .  A
O493       Eu499   2.453       .  S
O494        C509   1.291       .  A
O494       Eu499   2.467       .  S
O495        C508   1.289       .  A
O495       Eu498   2.453       .  S
O496        C505   1.290   1_556  A
O496       Eu502   2.463       .  S
O497        C506   1.291       .  A
O497       Eu502   2.465       .  S
Eu498       O516   2.361   1_554  S
Eu498       O504   2.347   1_554  S
Eu499       O503   2.349       .  S
Eu499       O514   2.359       .  S
Eu500       O514   2.352       .  S
Eu500       O504   2.355       .  S
Eu501       O503   2.354       .  S
Eu501       O516   2.353       .  S
Eu502       O503   2.352       .  S
Eu502       O514   2.357       .  S
Eu502       O516   2.357       .  S
Eu502       O504   2.353       .  S
C505        C972   1.436       .  S
C506        C849   1.435       .  S
C507        C760   1.449       .  S
C508        C784   1.429       .  S
C509        C773   1.447       .  S
C510        C768   1.430       .  S
C511        C756   1.432       .  S
C512        C772   1.435       .  S
H513        O514   0.964       .  S
H515        O516   0.965       .  S
C517        C518   1.533   1_655  S
C517        C523   1.525       .  S
C517        C521   1.529       .  S
C517        C912   1.456       .  S
C518        H525   1.087       .  S
C518        C519   1.364       .  D
C519        C520   1.536   1_455  S
C519        C765   1.436       .  S
C520        C524   1.541   1_655  S
C520        C522   1.542       .  S
C520        H526   1.111   1_655  S
C521        H527   1.087       .  S
C521        C522   1.363       .  D
C522        C809   1.441       .  S
C523        H528   1.087   1_655  S
C523        C524   1.359   1_655  D
C524        C749   1.439       .  S
C529        C530   1.535       .  S
C529        C535   1.529       .  S
C529        C533   1.535   1_655  S
C529        C869   1.466       .  S
C530        H537   1.086       .  S
C530        C531   1.366       .  D
C531        C532   1.539       .  S
C531        C805   1.444       .  S
C532        C536   1.537       .  S
C532        C534   1.535   1_655  S
C532        H538   1.112       .  S
C533        H539   1.087       .  S
C533        C534   1.364       .  D
C534        C753   1.438       .  S
C535        H540   1.087       .  S
C535        C536   1.361       .  D
C536        C748   1.439       .  S
C541        C542   1.534       .  S
C541        C547   1.525       .  S
C541        C545   1.536       .  S
C541       C1088   1.468       .  S
C542        H549   1.087       .  S
C542        C543   1.366       .  D
C543        C544   1.546       .  S
C543        C776   1.452       .  S
C544        C548   1.547       .  S
C544        C546   1.540       .  S
C544        H550   1.111       .  S
C545        H551   1.086       .  S
C545        C546   1.366       .  D
C546        C793   1.444       .  S
C547        H552   1.087       .  S
C547        C548   1.358       .  D
C548        C741   1.446       .  S
C553        C554   1.538       .  S
C553        C559   1.530       .  S
C553        C557   1.537       .  S
C553       C1028   1.469       .  S
C554        H561   1.086       .  S
C554        C555   1.366       .  D
C555        C556   1.534       .  S
C555        C792   1.440       .  S
C556        C560   1.535       .  S
C556        C558   1.537       .  S
C556        H562   1.112       .  S
C557        H563   1.086       .  S
C557        C558   1.367       .  D
C558        C780   1.444       .  S
C559        H564   1.087       .  S
C559        C560   1.360       .  D
C560        C740   1.438       .  S
C565        C566   1.534   1_655  S
C565        C571   1.525       .  S
C565        C569   1.537       .  S
C565        C865   1.469       .  S
C566        H573   1.086       .  S
C566        C567   1.367       .  D
C567        C568   1.547   1_455  S
C567        C757   1.454       .  S
C568        C572   1.547       .  S
C568        C570   1.539       .  S
C568        H574   1.111       .  S
C569        H575   1.086       .  S
C569        C570   1.367       .  D
C570        C801   1.444       .  S
C571        H576   1.088       .  S
C571        C572   1.358       .  D
C572        C733   1.446       .  S
C577        C578   1.536       .  S
C577        C583   1.529       .  S
C577        C581   1.536   1_655  S
C577        C908   1.466       .  S
C578        H585   1.086       .  S
C578        C579   1.365       .  D
C579        C580   1.534       .  S
C579        C816   1.438       .  S
C580        C584   1.535       .  S
C580        C582   1.537   1_655  S
C580        H586   1.112       .  S
C581        H587   1.086       .  S
C581        C582   1.366       .  D
C582        C761   1.442       .  S
C583        H588   1.087       .  S
C583        C584   1.360       .  D
C584        C729   1.437       .  S
C589        C590   1.537       .  S
C589        C595   1.530       .  S
C589        C593   1.536       .  S
C589       C1081   1.470       .  S
C590        H597   1.086       .  S
C590        C591   1.367       .  D
C591        C592   1.538       .  S
C591        C800   1.445       .  S
C592        C596   1.537       .  S
C592        C594   1.535       .  S
C592        H598   1.112       .  S
C593        H599   1.086       .  S
C593        C594   1.364       .  D
C594        C769   1.441       .  S
C595        H600   1.087       .  S
C595        C596   1.361       .  D
C596        C725   1.439       .  S
C601        C602   1.534       .  S
C601        C607   1.525       .  S
C601        C605   1.530       .  S
C601       C1021   1.458       .  S
C602        H609   1.087       .  S
C602        C603   1.364       .  D
C603        C604   1.535       .  S
C603        C781   1.436       .  S
C604        C608   1.539       .  S
C604        C606   1.541       .  S
C604        H610   1.112       .  S
C605        H611   1.087       .  S
C605        C606   1.363       .  D
C606        C788   1.441       .  S
C607        H612   1.087       .  S
C607        C608   1.358       .  D
C608        C721   1.437       .  S
O613        C624   1.296       .  A
O613       Eu649   2.498       .  S
O614        C625   1.290       .  A
O614       Eu648   2.460       .  S
O615        C626   1.293       .  A
O615       Eu621   2.480       .  S
O616        C627   1.290       .  A
O616       Eu621   2.463       .  S
O617        C627   1.289       .  A
O617       Eu651   2.450       .  S
O618        C626   1.285       .  A
O618       Eu650   2.430       .  S
O619        C625   1.288       .  A
O619       Eu621   2.448       .  S
O620        C624   1.285       .  A
O620       Eu621   2.430       .  S
Eu621       O631   2.355       .  S
Eu621       O623   2.347       .  S
Eu621       O622   2.358       .  S
Eu621       O629   2.344       .  S
O622       Eu651   2.356       .  S
O622       Eu648   2.357       .  S
O623       Eu649   2.341       .  S
O623       Eu650   2.356       .  S
C624       C1056   1.438       .  S
C625        C728   1.431       .  S
C626        C864   1.432       .  S
C627        C957   1.433       .  S
H628        O629   0.964       .  S
O629       Eu650   2.348       .  S
O629       Eu648   2.355       .  S
H630        O631   0.964       .  S
O631       Eu649   2.349       .  S
O631       Eu651   2.346       .  S
O632        C655   1.293       .  A
O632       Eu648   2.479       .  S
O633        C656   1.291       .  A
O633       Eu649   2.466       .  S
O634        C657   1.296       .  A
O634       Eu650   2.498       .  S
O635        C658   1.290       .  A
O635       Eu651   2.462       .  S
O636        C659   1.293       .  A
O636       Eu651   2.478       .  S
O637        C660   1.290       .  A
O637       Eu650   2.460       .  S
O638        C661   1.290       .  A
O638       Eu652   2.464       .  S
O639        C662   1.297       .  A
O639       Eu652   2.501       .  S
O640        C661   1.289       .  A
O640       Eu650   2.451       .  S
O641        C662   1.285       .  A
O641       Eu651   2.431       .  S
O642        C657   1.284       .  A
O642       Eu648   2.428       .  S
O643        C660   1.288       .  A
O643       Eu649   2.449       .  S
O644        C659   1.284       .  A
O644       Eu649   2.427       .  S
O645        C658   1.289       .  A
O645       Eu648   2.450       .  S
O646        C655   1.285       .  A
O646       Eu652   2.429       .  S
O647        C656   1.288       .  A
O647       Eu652   2.445       .  S
Eu648       O666   2.344       .  S
Eu648       O654   2.346       .  S
Eu649       O653   2.355       .  S
Eu649       O664   2.363       .  S
Eu650       O664   2.365       .  S
Eu650       O654   2.340       .  S
Eu651       O653   2.347       .  S
Eu651       O666   2.356       .  S
Eu652       O653   2.341       .  S
Eu652       O664   2.365       .  S
Eu652       O666   2.348       .  S
Eu652       O654   2.354       .  S
C655        C949   1.432       .  S
C656        C737   1.432       .  S
C657        C744   1.438       .  S
C658        C853   1.433       .  S
C659        C724   1.430       .  S
C660        C837   1.431       .  S
C661        C981   1.434       .  S
C662        C832   1.440       .  S
H663        O664   0.965       .  S
H665        O666   0.964       .  S
O667        C678   1.296       .  A
O667       Eu703   2.496       .  S
O668        C679   1.290       .  A
O668       Eu702   2.460   1_455  S
O669        C680   1.293       .  A
O669       Eu675   2.483       .  S
O670        C681   1.290       .  A
O670       Eu675   2.463   1_545  S
O671        C681   1.289   1_554  A
O671       Eu705   2.450       .  S
O672        C680   1.285   1_655  A
O672       Eu704   2.429       .  S
O673        C679   1.288       .  A
O673       Eu675   2.447   1_545  S
O674        C678   1.285   1_556  A
O674       Eu675   2.431       .  S
Eu675       O685   2.355   1_566  S
Eu675       O677   2.345   1_556  S
Eu675       O676   2.359   1_565  S
Eu675       O683   2.345   1_455  S
O676       Eu705   2.356   1_556  S
O676       Eu702   2.358   1_455  S
O677       Eu703   2.341       .  S
O677       Eu704   2.356   1_454  S
C678        C997   1.438       .  S
C679        C820   1.431       .  S
C680        C752   1.433       .  S
C681        C976   1.433       .  S
H682        O683   0.964       .  S
O683       Eu704   2.346       .  S
O683       Eu702   2.355   1_565  S
H684        O685   0.964       .  S
O685       Eu703   2.349   1_545  S
O685       Eu705   2.346       .  S
O686        C709   1.293       .  A
O686       Eu702   2.482       .  S
O687        C710   1.290       .  A
O687       Eu703   2.464   1_655  S
O688        C711   1.296       .  A
O688       Eu704   2.500       .  S
O689        C712   1.290       .  A
O689       Eu705   2.463   1_556  S
O690        C713   1.293       .  A
O690       Eu705   2.478       .  S
O691        C714   1.290       .  A
O691       Eu704   2.460   1_554  S
O692        C715   1.291       .  A
O692       Eu706   2.467   1_565  S
O693        C716   1.297       .  A
O693       Eu706   2.501       .  S
O694        C715   1.288       .  A
O694       Eu704   2.449   1_554  S
O695        C716   1.284       .  A
O695       Eu705   2.429   1_655  S
O696        C711   1.285   1_545  A
O696       Eu702   2.429       .  S
O697        C714   1.288       .  A
O697       Eu703   2.448   1_655  S
O698        C713   1.284   1_565  A
O698       Eu703   2.427       .  S
O699        C712   1.289   1_655  A
O699       Eu702   2.450       .  S
O700        C709   1.285   1_554  A
O700       Eu706   2.429       .  S
O701        C710   1.288   1_545  A
O701       Eu706   2.447       .  S
Eu702       O720   2.343   1_556  S
Eu702       O708   2.347       .  S
Eu703       O707   2.354   1_465  S
Eu703       O718   2.364   1_455  S
Eu704       O718   2.366   1_556  S
Eu704       O708   2.341   1_565  S
Eu705       O707   2.347   1_455  S
Eu705       O720   2.356   1_455  S
Eu706       O707   2.341       .  S
Eu706       O718   2.364   1_545  S
Eu706       O720   2.349       .  S
Eu706       O708   2.356   1_554  S
C709        C968   1.433       .  S
C710        C845   1.432       .  S
C711        C841   1.440       .  S
C712        C745   1.433       .  S
C713        C824   1.431       .  S
C714        C732   1.431       .  S
C715        C992   1.434       .  S
C716        C736   1.439       .  S
H717        O718   0.965       .  S
H719        O720   0.964       .  S
C721        C722   1.204       .  T
C722        C723   1.409       .  S
C723        C724   1.204       .  T
C725        C726   1.204       .  T
C726        C727   1.409       .  S
C727        C728   1.204       .  T
C729        C730   1.203       .  T
C730        C731   1.408       .  S
C731        C732   1.203       .  T
C733        C734   1.209       .  T
C734        C735   1.418       .  S
C735        C736   1.209       .  T
C737        C738   1.204       .  T
C738        C739   1.409       .  S
C739        C740   1.204       .  T
C741        C742   1.209       .  T
C742        C743   1.418       .  S
C743        C744   1.209       .  T
C745        C746   1.205       .  T
C746        C747   1.410       .  S
C747        C748   1.204   1_455  T
C749        C750   1.205       .  T
C750        C751   1.411       .  S
C751        C752   1.205       .  T
C753        C754   1.204       .  T
C754        C755   1.409       .  S
C755        C756   1.204       .  T
C757        C758   1.213       .  T
C758        C759   1.425       .  S
C759        C760   1.214       .  T
C761        C762   1.206       .  T
C762        C763   1.413       .  S
C763        C764   1.206       .  T
C765        C766   1.202       .  T
C766        C767   1.407       .  S
C767        C768   1.203       .  T
C769        C770   1.205       .  T
C770        C771   1.412       .  S
C771        C772   1.206       .  T
C773        C774   1.212       .  T
C774        C775   1.423       .  S
C775        C776   1.212       .  T
C777        C778   1.207       .  T
C778        C779   1.414       .  S
C779        C780   1.207       .  T
C781        C782   1.202       .  T
C782        C783   1.406       .  S
C783        C784   1.202       .  T
C785        C786   1.206       .  T
C786        C787   1.412       .  S
C787        C788   1.206       .  T
C789        C790   1.205       .  T
C790        C791   1.411       .  S
C791        C792   1.205       .  T
C793        C794   1.207       .  T
C794        C795   1.414       .  S
C795        C796   1.207       .  T
C797        C798   1.208       .  T
C798        C799   1.416       .  S
C799        C800   1.208       .  T
C801        C802   1.207       .  T
C802        C803   1.415       .  S
C803        C804   1.207       .  T
C805        C806   1.207       .  T
C806        C807   1.415       .  S
C807        C808   1.207       .  T
C809        C810   1.206       .  T
C810        C811   1.412       .  S
C811        C812   1.206       .  T
C813        C814   1.204       .  T
C814        C815   1.409       .  S
C815        C816   1.204       .  T
C817        C818   1.204       .  T
C818        C819   1.409       .  S
C819        C820   1.203       .  T
C821        C822   1.204       .  T
C822        C823   1.409       .  S
C823        C824   1.204       .  T
C825        C826   1.207       .  T
C826        C827   1.414       .  S
C827        C828   1.207       .  T
C829        C830   1.210       .  T
C830        C831   1.419       .  S
C831        C832   1.210       .  T
C833        C834   1.204       .  T
C834        C835   1.409       .  S
C835        C836   1.204       .  T
C837        C838   1.203       .  T
C838        C839   1.408       .  S
C839        C840   1.203       .  T
C841        C842   1.210       .  T
C842        C843   1.419       .  S
C843        C844   1.210       .  T
C845        C846   1.204       .  T
C846        C847   1.409       .  S
C847        C848   1.204       .  T
C849        C850   1.206       .  T
C850        C851   1.412       .  S
C851        C852   1.206       .  T
C853        C854   1.204       .  T
C854        C855   1.410       .  S
C855        C856   1.204       .  T
C857        C858   1.198       .  T
C858        C859   1.399       .  S
C859        C860   1.198       .  T
C861        C862   1.204       .  T
C862        C863   1.410       .  S
C863        C864   1.205       .  T
C865        C866   1.207       .  T
C866        C867   1.413       .  S
C867        C868   1.207       .  T
C869        C870   1.205       .  T
C870        C871   1.411       .  S
C871        C872   1.205       .  T
C873        C874   1.206       .  T
C874        C875   1.413       .  S
C875        C876   1.206       .  T
C877        C878   1.202       .  T
C878        C879   1.406       .  S
C879        C880   1.202       .  T
C881        C882   1.204       .  T
C882        C883   1.409       .  S
C883        C884   1.204       .  T
C885        C886   1.214       .  T
C886        C887   1.426       .  S
C887        C888   1.214       .  T
C889        C890   1.206       .  T
C890        C891   1.413       .  S
C891        C892   1.206       .  T
C893        C894   1.213       .  T
C894        C895   1.424       .  S
C895        C896   1.213       .  T
C897        C898   1.207       .  T
C898        C899   1.414       .  S
C899        C900   1.207       .  T
C901        C902   1.202       .  T
C902        C903   1.407       .  S
C903        C904   1.202       .  T
C905        C906   1.205       .  T
C906        C907   1.410       .  S
C907        C908   1.205       .  T
C909        C910   1.199       .  T
C910        C911   1.401       .  S
C911        C912   1.199       .  T
C913        C914   1.208       .  T
C914        C915   1.416       .  S
C915        C916   1.208       .  T
C917        C918   1.207       .  T
C918        C919   1.415       .  S
C919        C920   1.208       .  T
C921        C922   1.205       .  T
C922        C923   1.411       .  S
C923        C924   1.205       .  T
C925        C926   1.203       .  T
C926        C927   1.408       .  S
C927        C928   1.203       .  T
C929        C930   1.205       .  T
C930        C931   1.411       .  S
C931        C932   1.205       .  T
C933        C934   1.204       .  T
C934        C935   1.410       .  S
C935        C936   1.205       .  T
C937        C938   1.208       .  T
C938        C939   1.416       .  S
C939        C940   1.208       .  T
C941        C942   1.208       .  T
C942        C943   1.416       .  S
C943        C944   1.208       .  T
C945        C946   1.201       .  T
C946        C947   1.405       .  S
C947        C948   1.201       .  T
C949        C950   1.205       .  T
C950        C951   1.410       .  S
C951        C952   1.204       .  T
C953        C954   1.207       .  T
C954        C955   1.414       .  S
C955        C956   1.207       .  T
C957        C958   1.205       .  T
C958        C959   1.410       .  S
C959        C960   1.205       .  T
C961        C962   1.201       .  T
C962        C963   1.403       .  S
C963        C964   1.201   1_554  T
C965        C966   1.205       .  T
C966        C967   1.411       .  S
C967        C968   1.205       .  T
C969        C970   1.207       .  T
C970        C971   1.413       .  S
C971        C972   1.207       .  T
C973        C974   1.205       .  T
C974        C975   1.410       .  S
C975        C976   1.205       .  T
C977        C978   1.207       .  T
C978        C979   1.413       .  S
C979        C980   1.207       .  T
C981        C982   1.205       .  T
C982        C983   1.411       .  S
C983        C984   1.205       .  T
C985        C986   1.207       .  T
C986        C987   1.414       .  S
C987        C988   1.207       .  T
C989        C990   1.205       .  T
C990        C991   1.411       .  S
C991        C992   1.205       .  T
C993        C994   1.206       .  T
C994        C995   1.413       .  S
C995        C996   1.207       .  T
C997        C998   1.208       .  T
C998        C999   1.417       .  S
C999       C1000   1.209       .  T
C1001      C1002   1.200       .  T
C1002      C1003   1.402       .  S
C1003      C1004   1.200       .  T
C1005      C1006   1.206       .  T
C1006      C1007   1.413       .  S
C1007      C1008   1.206       .  T
C1009      C1010   1.206       .  T
C1010      C1011   1.413       .  S
C1011      C1012   1.206       .  T
C1013      C1014   1.204       .  T
C1014      C1015   1.410       .  S
C1015      C1016   1.204       .  T
C1017      C1018   1.209       .  T
C1018      C1019   1.417       .  S
C1019      C1020   1.209       .  T
C1021      C1022   1.200       .  T
C1022      C1023   1.403       .  S
C1023      C1024   1.200       .  T
C1025      C1026   1.206       .  T
C1026      C1027   1.413       .  S
C1027      C1028   1.206       .  T
C1029      C1030   1.206       .  T
C1030      C1031   1.413       .  S
C1031      C1032   1.206       .  T
C1033      C1034   1.205       .  T
C1034      C1035   1.410       .  S
C1035      C1036   1.204       .  T
C1037      C1038   1.207       .  T
C1038      C1039   1.415       .  S
C1039      C1040   1.207       .  T
C1041      C1042   1.209       .  T
C1042      C1043   1.418       .  S
C1043      C1044   1.209       .  T
C1045      C1046   1.207       .  T
C1046      C1047   1.414       .  S
C1047      C1048   1.207       .  T
C1049      C1050   1.207       .  T
C1050      C1051   1.415       .  S
C1051      C1052   1.207       .  T
C1053      C1054   1.209       .  T
C1054      C1055   1.418       .  S
C1055      C1056   1.209       .  T
C1057      C1058   1.208       .  T
C1058      C1059   1.415       .  S
C1059      C1060   1.207       .  T
C1061      C1062   1.207       .  T
C1062      C1063   1.414       .  S
C1063      C1064   1.207       .  T
C1065      C1066   1.205       .  T
C1066      C1067   1.412       .  S
C1067      C1068   1.206       .  T
C1069      C1070   1.212       .  T
C1070      C1071   1.422       .  S
C1071      C1072   1.212       .  T
C1073      C1074   1.208       .  T
C1074      C1075   1.416       .  S
C1075      C1076   1.208       .  T
C1077      C1078   1.203       .  T
C1078      C1079   1.408       .  S
C1079      C1080   1.203       .  T
C1081      C1082   1.207       .  T
C1082      C1083   1.414       .  S
C1083      C1084   1.207       .  T
C1085      C1086   1.206       .  T
C1086      C1087   1.413       .  S
C1087      C1088   1.206       .  T
C1089      C1090   1.205       .  T
C1090      C1091   1.411       .  S
C1091      C1092   1.205       .  T
C1093      C1094   1.212       .  T
C1094      C1095   1.422       .  S
C1095      C1096   1.211       .  T
C1097      C1098   1.208       .  T
C1098      C1099   1.415       .  S
C1099      C1100   1.208       .  T
C1101      C1102   1.202       .  T
C1102      C1103   1.407       .  S
C1103      C1104   1.203       .  T
