geometry optimzed in LAMMPS
_audit_creation_date              2020-11-30 
_audit_creation_method            'lammps2cif' 
_symmetry_space_group_name_H-M    'P1' 
_symmetry_Int_Tables_number       1 
_symmetry_cell_setting            triclinic 
loop_ 
_symmetry_equiv_pos_as_xyz 
  x,y,z 
_cell_length_a                    35.95473604 
_cell_length_b                    51.37520971598591 
_cell_length_c                    50.288215218877525 
_cell_angle_alpha                 90.19926250886537 
_cell_angle_beta                  89.81769999529372 
_cell_angle_gamma                 90.0675225512836 
loop_ 
_atom_site_label 
_atom_site_type_symbol 
_atom_site_fract_x 
_atom_site_fract_y 
_atom_site_fract_z 
_atom_site_charge 
C1          C  0.47569985  0.36203746  0.74306461     0.79900
N2          N  0.46535785  0.33668581  0.74105450    -0.78400
C3          C  0.46924125  0.32051720  0.76211368     0.82300
N4          N  0.48340294  0.32970852  0.78526920    -0.78400
C5          C  0.49411702  0.35490542  0.78735747     0.82400
N6          N  0.49000786  0.37110976  0.76629380    -0.80100
N7          N  0.79219955  0.53279827  0.94413900    -0.27600
N8          N  0.80150364  0.51092034  0.95624409    -0.35500
C9          C  0.77064210  0.49650649  0.96000488     0.00700
C10         C  0.74065993  0.51027004  0.95026616     0.06700
C11         C  0.75520852  0.53314951  0.94044241    -0.06400
H12         H  0.77003261  0.47760740  0.96943508     0.07400
H13         H  0.74020270  0.54856236  0.93056140     0.08600
Cu14       Cu  0.85551850  0.50183404  0.96765040     0.44200
Cu15       Cu  0.82966851  0.56063987  0.93108301     0.42000
Cu16       Cu  0.92562601  0.54580826  0.94253212     0.43900
N17         N  0.91156021  0.49927987  0.97747896    -0.35000
N18         N  0.93703814  0.51518550  0.96769095    -0.29300
C19         C  0.97028517  0.50928173  0.97811879    -0.05400
C20         C  0.96558913  0.48883969  0.99557477     0.06800
C21         C  0.92798879  0.48296366  0.99474992     0.00600
H22         H  0.99567618  0.51991361  0.97415731     0.08300
H23         H  0.91349833  0.46837695  0.00629328     0.07400
N24         N  0.90826023  0.57625126  0.91895027    -0.36500
N25         N  0.87294095  0.58204006  0.91485815    -0.28700
C26         C  0.87099713  0.60194435  0.89758759    -0.03900
C27         C  0.90686335  0.60888984  0.89060179     0.04700
C28         C  0.92976517  0.59220633  0.90442082     0.02800
H29         H  0.84540634  0.60994138  0.88977866     0.07900
H30         H  0.95975542  0.59114135  0.90327919     0.06800
N31         N  0.65043272  0.47981016  0.94136342    -0.27600
N32         N  0.64030829  0.50269393  0.95110442    -0.35500
C33         C  0.67093292  0.51696234  0.95593049     0.00700
C34         C  0.70164974  0.50212239  0.94942446     0.06700
C35         C  0.68778145  0.47869114  0.94029108    -0.06400
H36         H  0.67084402  0.53654471  0.96395293     0.07400
H37         H  0.70355953  0.46239041  0.93260222     0.08600
Cu38       Cu  0.58556514  0.51321802  0.95850234     0.44200
Cu39       Cu  0.61326390  0.45188190  0.92810068     0.42000
Cu40       Cu  0.51633388  0.46626264  0.93797769     0.43900
N41         N  0.52975647  0.51569508  0.96873660    -0.35000
N42         N  0.50464315  0.49844976  0.96106847    -0.29300
C43         C  0.47155885  0.50465626  0.97174838    -0.05400
C44         C  0.47606354  0.52678654  0.98704064     0.06800
C45         C  0.51329355  0.53329196  0.98476342     0.00600
H46         H  0.44643067  0.49332280  0.96927741     0.08300
H47         H  0.52756901  0.54918936  0.99453610     0.07400
N48         N  0.53504739  0.43602622  0.91450507    -0.36500
N49         N  0.57062386  0.43065667  0.91095705    -0.28700
C50         C  0.57376765  0.41145642  0.89291477    -0.03900
C51         C  0.53842247  0.40425484  0.88481263     0.04700
C52         C  0.51457534  0.42038844  0.89886403     0.02800
H53         H  0.59995576  0.40417293  0.88528284     0.07900
H54         H  0.48471868  0.42178490  0.89674030     0.06800
C55         C  0.95812417  0.67878209  0.80829807     0.79900
N56         N  0.98088233  0.66882131  0.78922051    -0.78400
C57         C  0.99304276  0.68357205  0.76865220     0.82300
N58         N  0.98150252  0.70869940  0.76696992    -0.78400
C59         C  0.95808144  0.71893135  0.78554288     0.82400
N60         N  0.94652942  0.70384344  0.80615347    -0.80100
N61         N  0.18458760  0.56465868  0.61713941    -0.27600
N62         N  0.17865639  0.55535659  0.59292475    -0.35500
C63         C  0.21054530  0.54513726  0.58347520     0.00700
C64         C  0.23750254  0.54775937  0.60281481     0.06700
C65         C  0.22012610  0.56003228  0.62392460    -0.06400
H66         H  0.21355734  0.53577598  0.56427458     0.07400
H67         H  0.23254591  0.56557621  0.64269137     0.08600
Cu68       Cu  0.12713986  0.55528106  0.57416057     0.44200
Cu69       Cu  0.14503763  0.58421426  0.63985856     0.42000
Cu70       Cu  0.05565880  0.59077792  0.60815486     0.43900
N71         N  0.07175141  0.55493151  0.56224366    -0.35000
N72         N  0.04553511  0.56821210  0.57478083    -0.29300
C73         C  0.01257516  0.56357992  0.56307948    -0.05400
C74         C  0.01825325  0.54644868  0.54219822     0.06800
C75         C  0.05610747  0.54137274  0.54222784     0.00600
H76         H  0.98633790  0.57166330  0.56968178     0.08300
H77         H  0.07111520  0.52847874  0.52895152     0.07400
N78         N  0.06946919  0.60895777  0.64356891    -0.36500
N79         N  0.10182112  0.60628715  0.65566277    -0.28700
C80         C  0.10102559  0.61989446  0.67860999    -0.03900
C81         C  0.06667965  0.63196758  0.68079602     0.04700
C82         C  0.04735520  0.62434259  0.65834238     0.02800
H83         H  0.12377344  0.62097554  0.69263638     0.07900
H84         H  0.01894582  0.62917883  0.65332719     0.06800
N85         N  0.32857487  0.51892376  0.61246663    -0.27600
N86         N  0.33218660  0.52737784  0.58777296    -0.35500
C87         C  0.30030805  0.53902876  0.58046137     0.00700
C88         C  0.27594586  0.53825561  0.60177895     0.06700
C89         C  0.29475663  0.52550408  0.62174353    -0.06400
H90         H  0.29543380  0.54772114  0.56121773     0.07400
H91         H  0.28415344  0.52048602  0.64123006     0.08600
Cu92       Cu  0.38082864  0.52334067  0.56566120     0.44200
Cu93       Cu  0.36804559  0.49667110  0.63175835     0.42000
Cu94       Cu  0.45311107  0.48458348  0.59633445     0.43900
N95         N  0.43493649  0.52053509  0.55122405    -0.35000
N96         N  0.46117309  0.50660111  0.56277841    -0.29300
C97         C  0.49342606  0.50990554  0.54971158    -0.05400
C98         C  0.48724184  0.52671341  0.52888089     0.06800
C99         C  0.44988554  0.53305238  0.53030446     0.00600
H100        H  0.51951749  0.50102414  0.55528640     0.08300
H101        H  0.43491841  0.54633859  0.51760060     0.07400
N102        N  0.43816983  0.46497409  0.63026259    -0.36500
N103        N  0.40688103  0.46930517  0.64337668    -0.28700
C104        C  0.40488192  0.45287633  0.66407172    -0.03900
C105        C  0.43647976  0.43753942  0.66381470     0.04700
C106        C  0.45712287  0.44587814  0.64228910     0.02800
H107        H  0.38209397  0.45209895  0.67814968     0.07900
H108        H  0.48363477  0.43834348  0.63559098     0.06800
C109        C  0.98458032  0.37001562  0.30838255     0.79900
N110        N  0.99533486  0.38242311  0.28583338    -0.78400
C111        C  0.00287440  0.36862922  0.26338231     0.82300
N112        N  0.99890441  0.34232857  0.26339770    -0.78400
C113        C  0.98824598  0.32982383  0.28590588     0.82400
N114        N  0.98085692  0.34371260  0.30831562    -0.80100
N115        N  0.29225117  0.53909232  0.09023140    -0.27600
N116        N  0.29582443  0.53332689  0.06468593    -0.35500
C117        C  0.26551767  0.52023095  0.05652600     0.00700
C118        C  0.24206629  0.51720790  0.07806292     0.06700
C119        C  0.25983775  0.52926490  0.09913287    -0.06400
H120        H  0.26149185  0.51271221  0.03661794     0.07400
H121        H  0.24974672  0.53106167  0.11934652     0.08600
Cu122      Cu  0.34280436  0.54123154  0.04235955     0.44200
Cu123      Cu  0.33109332  0.56065534  0.11167205     0.42000
Cu124      Cu  0.41370180  0.57851606  0.07395503     0.43900
N125        N  0.39611341  0.54460766  0.02729656    -0.35000
N126        N  0.42230419  0.55860932  0.03888298    -0.29300
C127        C  0.45444622  0.55552735  0.02553122    -0.05400
C128        C  0.44810841  0.53860746  0.00461044     0.06800
C129        C  0.41086797  0.53203873  0.00632111     0.00600
H130        H  0.48076770  0.56393203  0.03143749     0.08300
H131        H  0.39589659  0.51838886  0.99389667     0.07400
N132        N  0.40282218  0.59117552  0.11207826    -0.36500
N133        N  0.37328419  0.58452591  0.12624378    -0.28700
C134        C  0.37605800  0.59544734  0.15054330    -0.03900
C135        C  0.40910851  0.60937262  0.15163398     0.04700
C136        C  0.42506559  0.60639370  0.12682246     0.02800
H137        H  0.35567030  0.59327724  0.16623733     0.07900
H138        H  0.45144018  0.61417018  0.12014877     0.06800
N139        N  0.15739804  0.48135737  0.09268062    -0.27600
N140        N  0.15103003  0.48795691  0.06772222    -0.35500
C141        C  0.18058547  0.50123492  0.05838927     0.00700
C142        C  0.20634436  0.50338591  0.07865932     0.06700
C143        C  0.19075302  0.49064607  0.10008849    -0.06400
H144        H  0.18260224  0.50946698  0.03864946     0.07400
H145        H  0.20276890  0.48824317  0.11964085     0.08600
Cu146      Cu  0.10108430  0.48024378  0.04862876     0.44200
Cu147      Cu  0.12038188  0.46037326  0.11570913     0.42000
Cu148      Cu  0.02884595  0.44886691  0.08828741     0.43900
N149        N  0.04647751  0.47526442  0.03626977    -0.35000
N150        N  0.02022444  0.46377086  0.05051083    -0.29300
C151        C  0.98771314  0.46535503  0.03740521    -0.05400
C152        C  0.99379498  0.47868628  0.01393730     0.06800
C153        C  0.03131916  0.48463070  0.01387314     0.00600
H154        H  0.96132825  0.45851176  0.04506282     0.08300
H155        H  0.04628823  0.49585341  0.99914896     0.07400
N156        N  0.04460391  0.43752312  0.12617749    -0.36500
N157        N  0.07832149  0.44128473  0.13589717    -0.28700
C158        C  0.07987454  0.43145882  0.16060105    -0.03900
C159        C  0.04531489  0.42140747  0.16688523     0.04700
C160        C  0.02363199  0.42546662  0.14460673     0.02800
H161        H  0.10417483  0.43202059  0.17323393     0.07900
H162        H  0.99482507  0.41995153  0.14193471     0.06800
C163        C  0.46897012  0.66984853  0.23868824     0.79900
N164        N  0.46347533  0.69597924  0.23920593    -0.78400
C165        C  0.47435822  0.71028096  0.26051123     0.82300
N166        N  0.49033800  0.69840451  0.28166452    -0.78400
C167        C  0.49569361  0.67222463  0.28142267     0.82400
N168        N  0.48500937  0.65808282  0.25988766    -0.80100
N169        N  0.82665358  0.51423004  0.44828594    -0.27600
N170        N  0.83113814  0.52603334  0.47148837    -0.35500
C171        C  0.79940790  0.53854481  0.47783496     0.00700
C172        C  0.77437176  0.53480186  0.45734803     0.06700
C173        C  0.79250328  0.51940917  0.43895468    -0.06400
H174        H  0.79519890  0.54999950  0.49568970     0.07400
H175        H  0.78139062  0.51193089  0.42047023     0.08600
Cu176      Cu  0.88105131  0.52571703  0.49247608     0.44200
Cu177      Cu  0.86568129  0.49031905  0.43058437     0.42000
Cu178      Cu  0.95335046  0.48496890  0.46281124     0.43900
N179        N  0.93643951  0.52575500  0.50471649    -0.35000
N180        N  0.96249473  0.51109353  0.49363111    -0.29300
C181        C  0.99534195  0.51624075  0.50522544    -0.05400
C182        C  0.98984841  0.53498810  0.52459701     0.06800
C183        C  0.95216565  0.54058287  0.52377687     0.00600
H184        H  0.02134723  0.50702381  0.49982953     0.08300
H185        H  0.93733486  0.55461138  0.53589335     0.07400
N186        N  0.93874226  0.46233733  0.43026382    -0.36500
N187        N  0.90626869  0.46453456  0.41830595    -0.28700
C188        C  0.90508093  0.44804441  0.39754070    -0.03900
C189        C  0.93838074  0.43458905  0.39644014     0.04700
C190        C  0.95921911  0.44436333  0.41736647     0.02800
H191        H  0.88192486  0.44641079  0.38394021     0.07900
H192        H  0.98733649  0.43900945  0.42264506     0.06800
N193        N  0.68353759  0.56017124  0.43974110    -0.27600
N194        N  0.67665210  0.55111302  0.46387690    -0.35500
C195        C  0.70826977  0.54157597  0.47420443     0.00700
C196        C  0.73614652  0.54441839  0.45553591     0.06700
C197        C  0.71957578  0.55603602  0.43386513    -0.06400
H198        H  0.71042212  0.53232674  0.49343344     0.07400
H199        H  0.73277605  0.56124115  0.41524909     0.08600
Cu200      Cu  0.62434177  0.54975438  0.48111668     0.44200
Cu201      Cu  0.64412126  0.57796300  0.41567290     0.42000
Cu202      Cu  0.55111384  0.57745883  0.44208490     0.43900
N203        N  0.56859400  0.54671563  0.49102552    -0.35000
N204        N  0.54178136  0.55713917  0.47667859    -0.29300
C205        C  0.50876243  0.55170925  0.48793319    -0.05400
C206        C  0.51513766  0.53700057  0.51036239     0.06800
C207        C  0.55333734  0.53414405  0.51176942     0.00600
H208        H  0.48215457  0.55777988  0.48015300     0.08300
H209        H  0.56891438  0.52373506  0.52670522     0.07400
N210        N  0.56531114  0.59508411  0.40676510    -0.36500
N211        N  0.59930788  0.59544062  0.39674262    -0.28700
C212        C  0.59875930  0.60845969  0.37353377    -0.03900
C213        C  0.56250099  0.61638793  0.36871878     0.04700
C214        C  0.54225371  0.60768665  0.39033732     0.02800
H215        H  0.62293522  0.61192112  0.36120636     0.07900
H216        H  0.51274511  0.61011680  0.39378692     0.06800
C217        C  0.95509436  0.18045155  0.31274465     0.79900
N218        N  0.94415628  0.16763067  0.29050050    -0.78400
C219        C  0.93968493  0.18038945  0.26717998     0.82300
N220        N  0.94617548  0.20641034  0.26627569    -0.78400
C221        C  0.95736558  0.21956459  0.28837002     0.82400
N222        N  0.96218397  0.20639330  0.31153530    -0.80100
N223        N  0.09342423  0.02612658  0.44270643    -0.27600
N224        N  0.08161460  0.00372537  0.45251794    -0.35500
C225        C  0.11077422  0.98759451  0.45523294     0.00700
C226        C  0.14231204  0.00071372  0.44714005     0.06700
C227        C  0.13049729  0.02507910  0.43946868    -0.06400
H228        H  0.10922627  0.96806043  0.46314077     0.07400
H229        H  0.14744835  0.04071935  0.43165621     0.08600
Cu230      Cu  0.02688523  0.99658793  0.46309351     0.44200
Cu231      Cu  0.05879470  0.05674523  0.43304981     0.42000
Cu232      Cu  0.96199006  0.04875818  0.44980798     0.43900
N233        N  0.97162149  0.99597909  0.47473379    -0.35000
N234        N  0.94784514  0.01487685  0.46949749    -0.29300
C235        C  0.91456372  0.00884814  0.48003971    -0.05400
C236        C  0.91771548  0.98518272  0.49278375     0.06800
C237        C  0.95424251  0.97758750  0.48912984     0.00600
H238        H  0.89031316  0.02126975  0.47934025     0.08300
H239        H  0.96739947  0.96021436  0.49671367     0.07400
N240        N  0.98236194  0.07970569  0.42798091    -0.36500
N241        N  0.01778473  0.08251017  0.42158155    -0.28700
C242        C  0.02144756  0.10313905  0.40542717    -0.03900
C243        C  0.98667324  0.11411990  0.40172236     0.04700
C244        C  0.96257513  0.09858564  0.41625266     0.02800
H245        H  0.04730653  0.10889666  0.39607397     0.07900
H246        H  0.93257933  0.10020132  0.41733473     0.06800
N247        N  0.23119122  0.96819441  0.43928014    -0.27600
N248        N  0.24090828  0.98843085  0.45413617    -0.35500
C249        C  0.21069844  0.00302888  0.45912143     0.00700
C250        C  0.18055369  0.99116824  0.44735296     0.06700
C251        C  0.19428831  0.96913263  0.43502472    -0.06400
H252        H  0.21064470  0.02075353  0.47079926     0.07400
H253        H  0.17886300  0.95527433  0.42312260     0.08600
Cu254      Cu  0.29382222  0.99592768  0.46832036     0.44200
Cu255      Cu  0.26806418  0.94102124  0.42341655     0.42000
Cu256      Cu  0.36088029  0.94989555  0.44763334     0.43900
N257        N  0.34825125  0.99710740  0.48140436    -0.35000
N258        N  0.37300521  0.97981403  0.47338143    -0.29300
C259        C  0.40597706  0.98521505  0.48447036    -0.05400
C260        C  0.40175159  0.00690337  0.50045234     0.06800
C261        C  0.36475823  0.01396781  0.49819558     0.00600
H262        H  0.43106195  0.97401698  0.48122319     0.08300
H263        H  0.35094077  0.03014437  0.50786840     0.07400
N264        N  0.34740796  0.92469526  0.41738150    -0.36500
N265        N  0.31366673  0.92133762  0.40766347    -0.28700
C266        C  0.31601614  0.90589344  0.38595521    -0.03900
C267        C  0.35310575  0.89925395  0.38212940     0.04700
C268        C  0.37194414  0.91155849  0.40248951     0.02800
H269        H  0.29287879  0.90115168  0.37308281     0.07900
H270        H  0.40174148  0.91221253  0.40537966     0.06800
C271        C  0.46076989  0.86352994  0.24904553     0.79900
N272        N  0.46243901  0.83729128  0.24561557    -0.78400
C273        C  0.44760705  0.82100260  0.26415203     0.82300
N274        N  0.43111479  0.83131806  0.28611098    -0.78400
C275        C  0.42880161  0.85745494  0.28960528     0.82400
N276        N  0.44369258  0.87350713  0.27095024    -0.80100
N277        N  0.75681481  0.06437358  0.11045055    -0.27600
N278        N  0.76072530  0.05753763  0.08520225    -0.35500
C279        C  0.72844976  0.04734966  0.07645830     0.00700
C280        C  0.70340626  0.04736041  0.09737081     0.06700
C281        C  0.72231012  0.05811663  0.11861049    -0.06400
H282        H  0.72409997  0.03947648  0.05673502     0.07400
H283        H  0.71169515  0.06131486  0.13851607     0.08600
Cu284      Cu  0.81084894  0.05980001  0.06469295     0.44200
Cu285      Cu  0.79808759  0.08218883  0.13289337     0.42000
Cu286      Cu  0.88804245  0.08638045  0.10230416     0.43900
N287        N  0.86603195  0.05761884  0.05255796    -0.35000
N288        N  0.89401745  0.06728405  0.06644987    -0.29300
C289        C  0.92616661  0.06172638  0.05402178    -0.05400
C290        C  0.91806952  0.04780880  0.03124403     0.06800
C291        C  0.87972032  0.04553150  0.03087616     0.00600
H292        H  0.95341037  0.06698543  0.06137503     0.08300
H293        H  0.86302206  0.03542238  0.01625357     0.07400
N294        N  0.87600444  0.10267460  0.13882081    -0.36500
N295        N  0.84291561  0.10123842  0.15019737    -0.28700
C296        C  0.84414703  0.11366567  0.17375919    -0.03900
C297        C  0.87996978  0.12300903  0.17753519     0.04700
C298        C  0.89923581  0.11587669  0.15481364     0.02800
H299        H  0.82068632  0.11565129  0.18712164     0.07900
H300        H  0.92821403  0.11967138  0.15036852     0.06800
N301        N  0.61493644  0.01572140  0.11086787    -0.27600
N302        N  0.60773816  0.02616115  0.08742781    -0.35500
C303        C  0.63836663  0.03864912  0.07866320     0.00700
C304        C  0.66572633  0.03631405  0.09777368     0.06700
C305        C  0.64993242  0.02178936  0.11792035    -0.06400
H306        H  0.64017601  0.04931415  0.06018814     0.07400
H307        H  0.66308944  0.01572753  0.13619718     0.08600
Cu308      Cu  0.55564288  0.02451639  0.06955830     0.44200
Cu309      Cu  0.57750244  0.99301936  0.13207517     0.42000
Cu310      Cu  0.48322115  0.99211942  0.10752363     0.43900
N311        N  0.49961368  0.02487862  0.05920402    -0.35000
N312        N  0.47312200  0.01339772  0.07323009    -0.29300
C313        C  0.44010232  0.01762607  0.06143732    -0.05400
C314        C  0.44610061  0.03250829  0.03893748     0.06800
C315        C  0.48412781  0.03674236  0.03815773     0.00600
H316        H  0.41373781  0.01033612  0.06869371     0.08300
H317        H  0.49947091  0.04769524  0.02342046     0.07400
N318        N  0.50161883  0.96902879  0.13865678    -0.36500
N319        N  0.53617496  0.96918085  0.14753390    -0.28700
C320        C  0.53937978  0.95137409  0.16695532    -0.03900
C321        C  0.50527274  0.93920160  0.17033248     0.04700
C322        C  0.48190002  0.95120544  0.15225747     0.02800
H323        H  0.56489220  0.94723737  0.17749829     0.07900
H324        H  0.45275250  0.94715860  0.14898757     0.06800
C325        C  0.44076953  0.16865028  0.73916924     0.79900
N326        N  0.42648670  0.15817915  0.76170937    -0.78400
C327        C  0.41752843  0.17357658  0.78268651     0.82300
N328        N  0.42420805  0.19950721  0.78134555    -0.78400
C329        C  0.43886723  0.21029622  0.75900197     0.82400
N330        N  0.44677467  0.19468111  0.73793036    -0.80100
N331        N  0.25469038  0.05368155  0.94106623    -0.27600
N332        N  0.25939489  0.04468546  0.96542347    -0.35500
C333        C  0.22740495  0.03350184  0.97352016     0.00700
C334        C  0.20199463  0.03514341  0.95296565     0.06700
C335        C  0.22020054  0.04794197  0.93271392    -0.06400
H336        H  0.22324978  0.02432668  0.99263456     0.07400
H337        H  0.20893113  0.05332800  0.91358066     0.08600
Cu338      Cu  0.31016231  0.04709997  0.98537384     0.44200
Cu339      Cu  0.29419517  0.07470848  0.92076924     0.42000
Cu340      Cu  0.38436355  0.08198154  0.95049524     0.43900
N341        N  0.36550064  0.04834912  0.99794631    -0.35000
N342        N  0.39220850  0.06083541  0.98504893    -0.29300
C343        C  0.42465017  0.05724900  0.99774045    -0.05400
C344        C  0.41821990  0.04179097  0.01972221     0.06800
C345        C  0.38041581  0.03650302  0.01927232     0.00600
H346        H  0.45101701  0.06521858  0.99129188     0.08300
H347        H  0.36495264  0.02465789  0.03320184     0.07400
N348        N  0.36856576  0.10094195  0.91605494    -0.36500
N349        N  0.33522227  0.09822419  0.90548065    -0.28700
C350        C  0.33332006  0.11227534  0.88313317    -0.03900
C351        C  0.36716182  0.12450591  0.87927384     0.04700
C352        C  0.38900536  0.11672507  0.90048544     0.02800
H353        H  0.30925570  0.11300520  0.87029219     0.07900
H354        H  0.41789431  0.12146848  0.90396354     0.06800
N355        N  0.11023282  0.00895322  0.93896115    -0.27600
N356        N  0.10409347  0.02030777  0.96221558    -0.35500
C357        C  0.13611316  0.03061146  0.97119900     0.00700
C358        C  0.16348088  0.02580720  0.95252604     0.06700
C359        C  0.14617180  0.01225243  0.93225497    -0.06400
H360        H  0.13892495  0.04155797  0.98950083     0.07400
H361        H  0.15881905  0.00512555  0.91408664     0.08600
Cu362      Cu  0.05212051  0.02299958  0.97991169     0.44200
Cu363      Cu  0.06970172  0.98911314  0.91762162     0.42000
Cu364      Cu  0.97666539  0.99197704  0.94537816     0.43900
N365        N  0.99698140  0.02608693  0.99159977    -0.35000
N366        N  0.96931035  0.01479244  0.97872757    -0.29300
C367        C  0.93703040  0.02077620  0.99078600    -0.05400
C368        C  0.94479665  0.03661723  0.01229926     0.06800
C369        C  0.98304666  0.03958714  0.01228746     0.00600
H370        H  0.90998162  0.01407190  0.98431782     0.08300
H371        H  0.99954662  0.05084054  0.02614203     0.07400
N372        N  0.99066222  0.97019497  0.91238243    -0.36500
N373        N  0.02451753  0.96900408  0.90213379    -0.28700
C374        C  0.02402732  0.95293368  0.88096796    -0.03900
C375        C  0.98805304  0.94389180  0.87763984     0.04700
C376        C  0.96773435  0.95504803  0.89805741     0.02800
H377        H  0.04800108  0.94832858  0.86878342     0.07900
H378        H  0.93851001  0.95230714  0.90231495     0.06800
C379        C  0.93695091  0.87175908  0.79725710     0.79900
N380        N  0.93948842  0.84551725  0.80003568    -0.78400
C381        C  0.92576678  0.82927817  0.78103261     0.82300
N382        N  0.91001003  0.83962231  0.75895092    -0.78400
C383        C  0.90768279  0.86577325  0.75586969     0.82400
N384        N  0.92085802  0.88175225  0.77515924    -0.80100
N385        N  0.72969365  0.96604682  0.59037970    -0.27600
N386        N  0.73332798  0.97224685  0.56501723    -0.35500
C387        C  0.70191391  0.98386305  0.55683216     0.00700
C388        C  0.67791223  0.98534292  0.57829270     0.06700
C389        C  0.69634502  0.97399235  0.59921753    -0.06400
H390        H  0.69758379  0.99168583  0.53713412     0.07400
H391        H  0.68633496  0.97166976  0.61939372     0.08600
Cu392      Cu  0.78223657  0.96701723  0.54389728     0.44200
Cu393      Cu  0.76964671  0.94716684  0.61211973     0.42000
Cu394      Cu  0.85611443  0.93335078  0.57945062     0.43900
N395        N  0.83696209  0.96526820  0.53111266    -0.35000
N396        N  0.86357586  0.95259218  0.54371292    -0.29300
C397        C  0.89604052  0.95652203  0.53101470    -0.05400
C398        C  0.88957425  0.97268139  0.50962973     0.06800
C399        C  0.85189787  0.97791468  0.51029590     0.00600
H400        H  0.92265828  0.94936576  0.53776690     0.08300
H401        H  0.83663787  0.99063392  0.49716487     0.07400
N402        N  0.84369224  0.92131587  0.61772684    -0.36500
N403        N  0.81173443  0.92642875  0.62966393    -0.28700
C404        C  0.81240411  0.91689724  0.65449294    -0.03900
C405        C  0.84651308  0.90523182  0.65834814     0.04700
C406        C  0.86580472  0.90856566  0.63476175     0.02800
H407        H  0.79014026  0.91898424  0.66887475     0.07900
H408        H  0.89402155  0.90255401  0.63046969     0.06800
N409        N  0.59413534  0.02168224  0.59326585    -0.27600
N410        N  0.58750056  0.01458763  0.56842862    -0.35500
C411        C  0.61630185  0.00055296  0.55922533     0.00700
C412        C  0.64191411  0.99840866  0.57941294     0.06700
C413        C  0.62707493  0.01187342  0.60074994    -0.06400
H414        H  0.61805383  0.99212684  0.53951096     0.07400
H415        H  0.63968919  0.01491444  0.62002147     0.08600
Cu416      Cu  0.53898289  0.02269111  0.54855482     0.44200
Cu417      Cu  0.55923125  0.04548456  0.61528465     0.42000
Cu418      Cu  0.47236827  0.06211524  0.58205823     0.43900
N419        N  0.48457627  0.02587372  0.53645499    -0.35000
N420        N  0.45962368  0.04045907  0.54872763    -0.29300
C421        C  0.42630004  0.03688380  0.53717371    -0.05400
C422        C  0.43073172  0.01901565  0.51678473     0.06800
C423        C  0.46796925  0.01247561  0.51688795     0.00600
H424        H  0.40062476  0.04575410  0.54385052     0.08300
H425        H  0.48182398  0.99835580  0.50429455     0.07400
N426        N  0.48958075  0.07783762  0.61772867    -0.36500
N427        N  0.52075690  0.07177440  0.63011656    -0.28700
C428        C  0.52244855  0.08521486  0.65308281    -0.03900
C429        C  0.49055854  0.10017428  0.65526314     0.04700
C430        C  0.47061958  0.09516260  0.63241106     0.02800
H431        H  0.54513219  0.08405269  0.66713644     0.07900
H432        H  0.44382500  0.10311766  0.62706580     0.06800
C433        C  0.89205065  0.87656051  0.73124656    -0.06500
C434        C  0.85815892  0.86657458  0.72191567    -0.17600
C435        C  0.84259724  0.87542943  0.69815836     0.10700
C436        C  0.86128299  0.89479401  0.68337257    -0.06400
C437        C  0.89496534  0.90492471  0.69281012    -0.17600
C438        C  0.91061074  0.89600933  0.71645324     0.10800
S439        S  0.79969375  0.86058970  0.68742151    -0.32600
S440        S  0.95498201  0.90949419  0.72592018    -0.32600
H441        H  0.96987228  0.88581919  0.73494024     0.28800
H442        H  0.80779147  0.86163636  0.66007390     0.28800
H443        H  0.84383686  0.85159035  0.73313636     0.19400
H444        H  0.90933612  0.91986272  0.68156674     0.19400
C445        C  0.95078186  0.88962703  0.81811152    -0.06500
C446        C  0.92989951  0.91208697  0.82364803    -0.17600
C447        C  0.94149178  0.93022136  0.84264349     0.10700
C448        C  0.97459475  0.92575076  0.85698064    -0.06400
C449        C  0.99548844  0.90329418  0.85156108    -0.17600
C450        C  0.98417240  0.88531837  0.83223611     0.10800
S451        S  0.91361678  0.95914604  0.84657644    -0.32600
S452        S  0.01448552  0.85807243  0.82586086    -0.32600
H453        H  0.01046631  0.85895701  0.79805774     0.28800
H454        H  0.94400084  0.97608732  0.84998911     0.28800
H455        H  0.90435644  0.91571275  0.81287261     0.19400
H456        H  0.02101596  0.89978279  0.86239768     0.19400
C457        C  0.40230987  0.16209094  0.80724600    -0.06500
C458        C  0.41489230  0.17158098  0.83185445    -0.17600
C459        C  0.40304878  0.16042798  0.85577321     0.10700
C460        C  0.37874014  0.13878659  0.85516278    -0.06400
C461        C  0.36547686  0.12980622  0.83054806    -0.17600
C462        C  0.37643758  0.14139563  0.80675050     0.10800
S463        S  0.41896283  0.17537562  0.88616140    -0.32600
S464        S  0.35533346  0.12930939  0.77663890    -0.32600
H465        H  0.35253713  0.15387416  0.76452245     0.28800
H466        H  0.38568147  0.17112998  0.90027690     0.28800
H467        H  0.43428559  0.18772373  0.83248036     0.19400
H468        H  0.34654133  0.11342251  0.82972269     0.19400
C469        C  0.45259974  0.15143215  0.71722245    -0.06500
C470        C  0.46891762  0.12750245  0.72379236    -0.17600
C471        C  0.48160012  0.11038503  0.70417274     0.10700
C472        C  0.47881637  0.11750700  0.67714875    -0.06400
C473        C  0.46258160  0.14145924  0.67055316    -0.17600
C474        C  0.44904672  0.15831015  0.69016358     0.10800
S475        S  0.49904504  0.07934450  0.71507426    -0.32600
S476        S  0.42598383  0.18748266  0.67915987    -0.32600
H477        H  0.39823223  0.18686763  0.69893387     0.28800
H478        H  0.48152887  0.06495976  0.69481530     0.28800
H479        H  0.47167346  0.12195057  0.74449077     0.19400
H480        H  0.45988085  0.14694967  0.64983534     0.19400
C481        C  0.47575894  0.88120381  0.22851414    -0.06500
C482        C  0.46157659  0.87937890  0.20266165    -0.17600
C483        C  0.47196990  0.89720088  0.18296701     0.10700
C484        C  0.49603908  0.91813003  0.18941491    -0.06400
C485        C  0.51155316  0.91915481  0.21499270    -0.17600
C486        C  0.50233419  0.90067012  0.23433006     0.10800
S487        S  0.45499095  0.89120515  0.14983527    -0.32600
S488        S  0.52686595  0.90230676  0.26545861    -0.32600
H489        H  0.52457065  0.87555905  0.27108743     0.28800
H490        H  0.48785850  0.89931946  0.13704776     0.28800
H491        H  0.44206343  0.86400072  0.19779535     0.19400
H492        H  0.53096094  0.93453493  0.22004029     0.19400
C493        C  0.40964057  0.86814725  0.31340305    -0.06500
C494        C  0.37792580  0.85530372  0.32340160    -0.17600
C495        C  0.35894070  0.86461543  0.34593884     0.10700
C496        C  0.37097878  0.88787663  0.35824737    -0.06400
C497        C  0.40233424  0.90073618  0.34805308    -0.17600
C498        C  0.42224047  0.89083545  0.32649868     0.10800
S499        S  0.32105694  0.84528464  0.35869968    -0.32600
S500        S  0.46517300  0.90698379  0.31842914    -0.32600
H501        H  0.48503064  0.88361937  0.31496444     0.28800
H502        H  0.32778311  0.85095252  0.38563863     0.28800
H503        H  0.36809055  0.83768707  0.31381793     0.19400
H504        H  0.41217090  0.91847283  0.35742689     0.19400
C505        C  0.89515523  0.13731250  0.20071721    -0.06500
C506        C  0.92016713  0.15788005  0.19615423    -0.17600
C507        C  0.93577105  0.17201094  0.21723557     0.10700
C508        C  0.92548591  0.16600276  0.24369487    -0.06400
C509        C  0.90061281  0.14534910  0.24815583    -0.17600
C510        C  0.88596328  0.13073827  0.22719740     0.10800
S511        S  0.96980311  0.19648719  0.20893901    -0.32600
S512        S  0.85765393  0.10306322  0.23594731    -0.32600
H513        H  0.87289527  0.08656802  0.21637287     0.28800
H514        H  0.99387523  0.19024948  0.22998040     0.28800
H515        H  0.92790412  0.16287636  0.17597311     0.19400
H516        H  0.89268889  0.14025371  0.26827018     0.19400
C517        C  0.95979365  0.16596186  0.33783044    -0.06500
C518        C  0.99090718  0.17117554  0.35377881    -0.17600
C519        C  0.99907175  0.15570995  0.37589134     0.10700
C520        C  0.97638077  0.13393948  0.38174719    -0.06400
C521        C  0.94404794  0.12980281  0.36674727    -0.17600
C522        C  0.93515342  0.14579103  0.34532048     0.10800
S523        S  0.03817728  0.16520287  0.39607951    -0.32600
S524        S  0.89154444  0.13963674  0.32879368    -0.32600
H525        H  0.88449108  0.16588032  0.32270193     0.28800
H526        H  0.02289291  0.15621405  0.42014839     0.28800
H527        H  0.00942539  0.18707113  0.34869141     0.19400
H528        H  0.92584574  0.11359107  0.37128618     0.19400
C529        C  0.46792044  0.73846104  0.26087162    -0.06500
C530        C  0.43699818  0.74788963  0.27477612    -0.17600
C531        C  0.42810589  0.77437861  0.27465702     0.10700
C532        C  0.45188926  0.79229888  0.26149333    -0.06400
C533        C  0.48231643  0.78250910  0.24689726    -0.17600
C534        C  0.49043711  0.75586393  0.24636585     0.10800
S535        S  0.38472577  0.78345751  0.29015595    -0.32600
S536        S  0.53004152  0.74534795  0.22701799    -0.32600
H537        H  0.53908182  0.72374151  0.24278468     0.28800
H538        H  0.37546491  0.80191065  0.27064550     0.28800
H539        H  0.41890829  0.73434616  0.28509529     0.19400
H540        H  0.50067769  0.79572893  0.23642502     0.19400
C541        C  0.54744444  0.63123977  0.34597491    -0.06500
C542        C  0.52074058  0.65053321  0.35130113    -0.17600
C543        C  0.50338710  0.66420709  0.33080411     0.10700
C544        C  0.51337690  0.65897724  0.30412587    -0.06400
C545        C  0.54051192  0.64002819  0.29877681    -0.17600
C546        C  0.55735305  0.62598151  0.31925261     0.10800
S547        S  0.46736428  0.68692696  0.34005705    -0.32600
S548        S  0.58936774  0.60065874  0.30965461    -0.32600
H549        H  0.57597728  0.58249642  0.32824158     0.28800
H550        H  0.44359443  0.68047990  0.31885869     0.28800
H551        H  0.51272728  0.65468916  0.37169720     0.19400
H552        H  0.54823380  0.63578292  0.27834189     0.19400
C553        C  0.42514156  0.62404234  0.17419644    -0.06500
C554        C  0.44152307  0.64832852  0.16905877    -0.17600
C555        C  0.45744139  0.66316294  0.18941681     0.10700
C556        C  0.45583378  0.65408017  0.21590792    -0.06400
C557        C  0.44029433  0.62947593  0.22093567    -0.17600
C558        C  0.42567911  0.61419691  0.20039242     0.10800
S559        S  0.48103266  0.69273522  0.17998967    -0.32600
S560        S  0.41028820  0.58182905  0.20873746    -0.32600
H561        H  0.42415606  0.57017384  0.18537250     0.28800
H562        H  0.51025829  0.68975535  0.19827733     0.28800
H563        H  0.44226094  0.65575402  0.14888224     0.19400
H564        H  0.43960625  0.62198452  0.24108311     0.19400
C565        C  0.96484690  0.24793136  0.28726717    -0.06500
C566        C  0.99394501  0.25813032  0.30277574    -0.17600
C567        C  0.00312534  0.28460643  0.30200491     0.10700
C568        C  0.98254153  0.30149124  0.28563016    -0.06400
C569        C  0.95384327  0.29141955  0.26990467    -0.17600
C570        C  0.94431399  0.26503784  0.27085960     0.10800
S571        S  0.04194031  0.29550433  0.32180234    -0.32600
S572        S  0.90401828  0.25507756  0.25214430    -0.32600
H573        H  0.88989312  0.23875234  0.27220561     0.28800
H574        H  0.05231446  0.31628272  0.30521554     0.28800
H575        H  0.01020530  0.24529284  0.31523772     0.19400
H576        H  0.93759880  0.30446839  0.25765243     0.19400
C577        C  0.01472849  0.38227069  0.23904840    -0.06500
C578        C  0.99352231  0.40341823  0.23015381    -0.17600
C579        C  0.00309120  0.41677896  0.20690412     0.10700
C580        C  0.03440316  0.40871340  0.19198409    -0.06400
C581        C  0.05596250  0.38786933  0.20112984    -0.17600
C582        C  0.04658631  0.37465527  0.22448813     0.10800
S583        S  0.97502301  0.44442520  0.19788983    -0.32600
S584        S  0.07701949  0.34882687  0.23505907    -0.32600
H585        H  0.07330044  0.35391163  0.26244696     0.28800
H586        H  0.00462286  0.45930558  0.18767503     0.28800
H587        H  0.96927875  0.40955149  0.24139182     0.19400
H588        H  0.08027568  0.38178817  0.18993197     0.19400
C589        C  0.97474559  0.38514709  0.33231182    -0.06500
C590        C  0.93944157  0.38142619  0.34357423    -0.17600
C591        C  0.92721319  0.39660932  0.36501498     0.10700
C592        C  0.95075584  0.41617401  0.37552011    -0.06400
C593        C  0.98660529  0.41923631  0.36478551    -0.17600
C594        C  0.99882298  0.40399060  0.34336560     0.10800
S595        S  0.88160878  0.38960006  0.37818771    -0.32600
S596        S  0.04537981  0.40950250  0.33113755    -0.32600
H597        H  0.05194032  0.38364336  0.32315362     0.28800
H598        H  0.89092506  0.39496709  0.40478917     0.28800
H599        H  0.92094631  0.36685550  0.33528100     0.19400
H600        H  0.00497960  0.43406329  0.37270931     0.19400
C601        C  0.94627745  0.74655608  0.78397506    -0.06500
C602        C  0.94181426  0.76074066  0.80771598    -0.17600
C603        C  0.93328962  0.78733079  0.80754520     0.10700
C604        C  0.93051058  0.80061895  0.78301413    -0.06400
C605        C  0.93354542  0.78616768  0.75930694    -0.17600
C606        C  0.94050433  0.75940814  0.75950819     0.10800
S607        S  0.92501605  0.80269134  0.83929812    -0.32600
S608        S  0.94005914  0.74284129  0.72784499    -0.32600
H609        H  0.92274297  0.72019884  0.73757166     0.28800
H610        H  0.89507014  0.81787918  0.83028280     0.28800
H611        H  0.94524365  0.75110459  0.82667020     0.19400
H612        H  0.93061971  0.79576270  0.74027936     0.19400
C613        C  0.01599675  0.67177610  0.74705274    -0.08100
C614        C  0.01260840  0.68179829  0.72120421    -0.17600
C615        C  0.03050100  0.67014337  0.69951305     0.10700
C616        C  0.05201965  0.64749448  0.70336347    -0.06400
C617        C  0.05734471  0.63828974  0.72928663    -0.17600
C618        C  0.03978801  0.65014520  0.75119248     0.10800
S619        S  0.02520554  0.68546984  0.66753889    -0.32600
S620        S  0.04874963  0.63753293  0.78410582    -0.32600
H621        H  0.07457504  0.61829374  0.77662138     0.28800
H622        H  0.06075908  0.67868069  0.65806083     0.28800
H623        H  0.99520357  0.69863626  0.71763935     0.19400
H624        H  0.07431603  0.62113634  0.73223339     0.19400
C625        C  0.91827233  0.62661875  0.86919663    -0.06500
C626        C  0.91712100  0.65349960  0.87375052    -0.17600
C627        C  0.93105192  0.67106297  0.85489996     0.10700
C628        C  0.94483768  0.66162654  0.83019170    -0.06400
C629        C  0.94568178  0.63453488  0.82589097    -0.17600
C630        C  0.93279754  0.61707194  0.84501982     0.10800
S631        S  0.93303106  0.70477960  0.86474069    -0.32600
S632        S  0.93576081  0.58279590  0.83732694    -0.32600
H633        H  0.90337037  0.57548414  0.85113794     0.28800
H634        H  0.96941474  0.70852615  0.85505243     0.28800
H635        H  0.90685977  0.66078727  0.89265064     0.19400
H636        H  0.95610767  0.62670049  0.80728387     0.19400
C637        C  0.45836985  0.29308678  0.75994676    -0.06500
C638        C  0.47403530  0.27800495  0.73959423    -0.17600
C639        C  0.46892385  0.25103202  0.73874169     0.10700
C640        C  0.44606069  0.23880306  0.75816504    -0.06400
C641        C  0.42932471  0.25442779  0.77790997    -0.17600
C642        C  0.43524410  0.28122483  0.77902557     0.10800
S643        S  0.49476789  0.23374654  0.71351721    -0.32600
S644        S  0.41202435  0.29923720  0.80508906    -0.32600
H645        H  0.40744404  0.32222692  0.79035012     0.28800
H646        H  0.51078362  0.21634713  0.73175158     0.28800
H647        H  0.49220719  0.28713728  0.72509284     0.19400
H648        H  0.41125808  0.24580812  0.79277089     0.19400
C649        C  0.50810354  0.36492055  0.81282948    -0.06500
C650        C  0.48637516  0.36137215  0.83575384    -0.17600
C651        C  0.49666753  0.37262935  0.86002328     0.10700
C652        C  0.52893216  0.38835354  0.86126133    -0.06400
C653        C  0.55154305  0.39067767  0.83858154    -0.17600
C654        C  0.54183055  0.37879337  0.81461425     0.10800
S655        S  0.46794798  0.36572529  0.88860535    -0.32600
S656        S  0.57417822  0.38152151  0.78734101    -0.32600
H657        H  0.56530563  0.35740117  0.77564854     0.28800
H658        H  0.49705880  0.36700451  0.90718550     0.28800
H659        H  0.46090719  0.35010415  0.83464497     0.19400
H660        H  0.57665795  0.40231217  0.83928345     0.19400
C661        C  0.46772342  0.38011060  0.72112797    -0.06500
C662        C  0.43256619  0.37881504  0.70913095    -0.17600
C663        C  0.42197946  0.39679601  0.68980952     0.10700
C664        C  0.44673793  0.41695059  0.68266226    -0.06400
C665        C  0.48232331  0.41772211  0.69393304    -0.17600
C666        C  0.49320485  0.39940592  0.71282696     0.10800
S667        S  0.37711324  0.39242810  0.67450111    -0.32600
S668        S  0.54029245  0.40122481  0.72474116    -0.32600
H669        H  0.54467664  0.37416982  0.72755281     0.28800
H670        H  0.38837741  0.40080659  0.64911741     0.28800
H671        H  0.41298091  0.36386809  0.71507860     0.19400
H672        H  0.50173628  0.43281662  0.68808339     0.19400
loop_ 
_geom_bond_atom_site_label_1 
_geom_bond_atom_site_label_2 
_geom_bond_distance 
_geom_bond_site_symmetry_2 
_ccdc_geom_bond_type 
C1            N2   1.358       .  A
C1            N6   1.359       .  A
C1          C661   1.473       .  S
N2            C3   1.356       .  A
C3            N4   1.356       .  A
C3          C637   1.466       .  S
N4            C5   1.354       .  A
C5            N6   1.358       .  A
C5          C649   1.469       .  S
N7           C11   1.344       .  A
N7            N8   1.324       .  A
N7          Cu15   2.071       .  S
N8            C9   1.347       .  A
N8          Cu14   2.081       .  S
C9           C10   1.382       .  A
C9           H12   1.082       .  S
C10          C34   1.464       .  S
C10          C11   1.379       .  A
C11          H13   1.082       .  S
Cu14         N17   2.081       .  S
Cu15         N25   2.071       .  S
Cu16         N18   2.065       .  S
Cu16         N24   2.065       .  S
N17          C21   1.347       .  A
N17          N18   1.322       .  A
N18          C19   1.342       .  A
C19          C20   1.381       .  A
C19          H22   1.082       .  S
C20         C152   1.471   1_556  S
C20          C21   1.386       .  A
C21          H23   1.082   1_556  S
N24          C28   1.343       .  A
N24          N25   1.322       .  A
N25          C26   1.346       .  A
C26          C27   1.382       .  A
C26          H29   1.083       .  S
C27         C625   1.470       .  S
C27          C28   1.380       .  A
C28          H30   1.081       .  S
N31          C35   1.345       .  A
N31          N32   1.323       .  A
N31         Cu39   2.070       .  S
N32          C33   1.344       .  A
N32         Cu38   2.074       .  S
C33          C34   1.381       .  A
C33          H36   1.083       .  S
C34          C35   1.380       .  A
C35          H37   1.082       .  S
Cu38         N41   2.074       .  S
Cu39         N49   2.069       .  S
Cu40         N42   2.060       .  S
Cu40         N48   2.060       .  S
N41          C45   1.346       .  A
N41          N42   1.322       .  A
N42          C43   1.342       .  A
C43          C44   1.380       .  A
C43          H46   1.082       .  S
C44         C128   1.467   1_556  S
C44          C45   1.384       .  A
C45          H47   1.082       .  S
N48          C52   1.343       .  A
N48          N49   1.320       .  A
N49          C50   1.343       .  A
C50          C51   1.385       .  A
C50          H53   1.082       .  S
C51         C652   1.477       .  S
C51          C52   1.384       .  A
C52          H54   1.082       .  S
C55          N56   1.358       .  A
C55          N60   1.359       .  A
C55         C628   1.490       .  S
N56          C57   1.355       .  A
C57          N58   1.359       .  A
C57         C613   1.490   1_655  S
N58          C59   1.360       .  A
C59          N60   1.360       .  A
C59         C601   1.484       .  S
N61          C65   1.345       .  A
N61          N62   1.324       .  A
N61         Cu69   2.079       .  S
N62          C63   1.346       .  A
N62         Cu68   2.081       .  S
C63          C64   1.381       .  A
C63          H66   1.082       .  S
C64          C88   1.467       .  S
C64          C65   1.381       .  A
C65          H67   1.082       .  S
Cu68         N71   2.082       .  S
Cu69         N79   2.079       .  S
Cu70         N72   2.069       .  S
Cu70         N78   2.070       .  S
N71          C75   1.346       .  A
N71          N72   1.321       .  A
N72          C73   1.345       .  A
C73          C74   1.383       .  A
C73          H76   1.082   1_455  S
C74         C182   1.474   1_455  S
C74          C75   1.386       .  A
C75          H77   1.082       .  S
N78          C82   1.343       .  A
N78          N79   1.322       .  A
N79          C80   1.347       .  A
C80          C81   1.386       .  A
C80          H83   1.083       .  S
C81         C616   1.481       .  S
C81          C82   1.383       .  A
C82          H84   1.082       .  S
N85          C89   1.344       .  A
N85          N86   1.323       .  A
N85         Cu93   2.069       .  S
N86          C87   1.346       .  A
N86         Cu92   2.080       .  S
C87          C88   1.383       .  A
C87          H90   1.082       .  S
C88          C89   1.380       .  A
C89          H91   1.082       .  S
Cu92         N95   2.079       .  S
Cu93        N103   2.070       .  S
Cu94         N96   2.054       .  S
Cu94        N102   2.054       .  S
N95          C99   1.345       .  A
N95          N96   1.322       .  A
N96          C97   1.342       .  A
C97          C98   1.379       .  A
C97         H100   1.082       .  S
C98         C206   1.466       .  S
C98          C99   1.384       .  A
C99         H101   1.082       .  S
N102        C106   1.342       .  A
N102        N103   1.321       .  A
N103        C104   1.344       .  A
C104        C105   1.383       .  A
C104        H107   1.082       .  S
C105        C664   1.471       .  S
C105        C106   1.380       .  A
C106        H108   1.082       .  S
C109        N110   1.358       .  A
C109        N114   1.358       .  A
C109        C589   1.473       .  S
N110        C111   1.358   1_655  A
C111        N112   1.359   1_455  A
C111        C577   1.474       .  S
N112        C113   1.357       .  A
C113        N114   1.357       .  A
C113        C568   1.470       .  S
N115        C119   1.345       .  A
N115        N116   1.323       .  A
N115       Cu123   2.083       .  S
N116        C117   1.344       .  A
N116       Cu122   2.066       .  S
C117        C118   1.380       .  A
C117        H120   1.082       .  S
C118        C142   1.467       .  S
C118        C119   1.383       .  A
C119        H121   1.082       .  S
Cu122       N125   2.066       .  S
Cu123       N133   2.083       .  S
Cu124       N126   2.058       .  S
Cu124       N132   2.059       .  S
N125        C129   1.343       .  A
N125        N126   1.320       .  A
N126        C127   1.344       .  A
C127        C128   1.382       .  A
C127        H130   1.082       .  S
C128        C129   1.383       .  A
C129        H131   1.082   1_554  S
N132        C136   1.341       .  A
N132        N133   1.322       .  A
N133        C134   1.347       .  A
C134        C135   1.387       .  A
C134        H137   1.081       .  S
C135        C553   1.478       .  S
C135        C136   1.380       .  A
C136        H138   1.081       .  S
N139        C143   1.344       .  A
N139        N140   1.322       .  A
N139       Cu147   2.066       .  S
N140        C141   1.346       .  A
N140       Cu146   2.076       .  S
C141        C142   1.383       .  A
C141        H144   1.083       .  S
C142        C143   1.380       .  A
C143        H145   1.083       .  S
Cu146       N149   2.077       .  S
Cu147       N157   2.067       .  S
Cu148       N150   2.075       .  S
Cu148       N156   2.075       .  S
N149        C153   1.344       .  A
N149        N150   1.323       .  A
N150        C151   1.346   1_455  A
C151        C152   1.383       .  A
C151        H154   1.082       .  S
C152        C153   1.383   1_655  A
C153        H155   1.082   1_554  S
N156        C160   1.345       .  A
N156        N157   1.322       .  A
N157        C158   1.344       .  A
C158        C159   1.381       .  A
C158        H161   1.082       .  S
C159        C580   1.475       .  S
C159        C160   1.383       .  A
C160        H162   1.082   1_455  S
C163        N164   1.357       .  A
C163        N168   1.358       .  A
C163        C556   1.479       .  S
N164        C165   1.356       .  A
C165        N166   1.358       .  A
C165        C529   1.466       .  S
N166        C167   1.359       .  A
C167        N168   1.358       .  A
C167        C544   1.477       .  S
N169        C173   1.343       .  A
N169        N170   1.323       .  A
N169       Cu177   2.064       .  S
N170        C171   1.347       .  A
N170       Cu176   2.085       .  S
C171        C172   1.383       .  A
C171        H174   1.082       .  S
C172        C196   1.464       .  S
C172        C173   1.378       .  A
C173        H175   1.082       .  S
Cu176       N179   2.086       .  S
Cu177       N187   2.064       .  S
Cu178       N180   2.073       .  S
Cu178       N186   2.073       .  S
N179        C183   1.348       .  A
N179        N180   1.323       .  A
N180        C181   1.344       .  A
C181        C182   1.381       .  A
C181        H184   1.082   1_655  S
C182        C183   1.386       .  A
C183        H185   1.082       .  S
N186        C190   1.345       .  A
N186        N187   1.320       .  A
N187        C188   1.343       .  A
C188        C189   1.384       .  A
C188        H191   1.082       .  S
C189        C592   1.480       .  S
C189        C190   1.386       .  A
C190        H192   1.082       .  S
N193        C197   1.345       .  A
N193        N194   1.324       .  A
N193       Cu201   2.081       .  S
N194        C195   1.345       .  A
N194       Cu200   2.070       .  S
C195        C196   1.379       .  A
C195        H198   1.082       .  S
C196        C197   1.381       .  A
C197        H199   1.082       .  S
Cu200       N203   2.070       .  S
Cu201       N211   2.080       .  S
Cu202       N204   2.058       .  S
Cu202       N210   2.059       .  S
N203        C207   1.344       .  A
N203        N204   1.321       .  A
N204        C205   1.343       .  A
C205        C206   1.380       .  A
C205        H208   1.081       .  S
C206        C207   1.384       .  A
C207        H209   1.082       .  S
N210        C214   1.341       .  A
N210        N211   1.321       .  A
N211        C212   1.347       .  A
C212        C213   1.389       .  A
C212        H215   1.081       .  S
C213        C541   1.481       .  S
C213        C214   1.382       .  A
C214        H216   1.082       .  S
C217        N218   1.355       .  A
C217        N222   1.358       .  A
C217        C517   1.477       .  S
N218        C219   1.356       .  A
C219        N220   1.358       .  A
C219        C508   1.483       .  S
N220        C221   1.360       .  A
C221        N222   1.361       .  A
C221        C565   1.483       .  S
N223        C227   1.343       .  A
N223        N224   1.323       .  A
N223       Cu231   2.067       .  S
N224        C225   1.345   1_545  A
N224       Cu230   2.069   1_545  S
C225        C226   1.379   1_565  A
C225        H228   1.082       .  S
C226        C250   1.460   1_545  S
C226        C227   1.379       .  A
C227        H229   1.082       .  S
Cu230       N233   2.070   1_455  S
Cu231       N241   2.067       .  S
Cu232       N234   2.068       .  S
Cu232       N240   2.067       .  S
N233        C237   1.345       .  A
N233        N234   1.322   1_565  A
N234        C235   1.344       .  A
C235        C236   1.381   1_545  A
C235        H238   1.082       .  S
C236        C398   1.467       .  S
C236        C237   1.382       .  A
C237        H239   1.082       .  S
N240        C244   1.343       .  A
N240        N241   1.320   1_655  A
N241        C242   1.344       .  A
C242        C243   1.386   1_455  A
C242        H245   1.082       .  S
C243        C520   1.481       .  S
C243        C244   1.386       .  A
C244        H246   1.083       .  S
N247        C251   1.346       .  A
N247        N248   1.325       .  A
N247       Cu255   2.082       .  S
N248        C249   1.343   1_565  A
N248       Cu254   2.069       .  S
C249        C250   1.377   1_545  A
C249        H252   1.082       .  S
C250        C251   1.380       .  A
C251        H253   1.082       .  S
Cu254       N257   2.067       .  S
Cu255       N265   2.081       .  S
Cu256       N258   2.054       .  S
Cu256       N264   2.053       .  S
N257        C261   1.346   1_565  A
N257        N258   1.320       .  A
N258        C259   1.340       .  A
C259        C260   1.380   1_565  A
C259        H262   1.082       .  S
C260        C422   1.466       .  S
C260        C261   1.384       .  A
C261        H263   1.082       .  S
N264        C268   1.337       .  A
N264        N265   1.320       .  A
N265        C266   1.350       .  A
C266        C267   1.389       .  A
C266        H269   1.083       .  S
C267        C496   1.479       .  S
C267        C268   1.380       .  A
C268        H270   1.082       .  S
C271        N272   1.360       .  A
C271        N276   1.359       .  A
C271        C481   1.477       .  S
N272        C273   1.362       .  A
C273        N274   1.358       .  A
C273        C532   1.488       .  S
N274        C275   1.356       .  A
C275        N276   1.359       .  A
C275        C493   1.483       .  S
N277        C281   1.344       .  A
N277        N278   1.323       .  A
N277       Cu285   2.077       .  S
N278        C279   1.347       .  A
N278       Cu284   2.077       .  S
C279        C280   1.382       .  A
C279        H282   1.082       .  S
C280        C304   1.468       .  S
C280        C281   1.381       .  A
C281        H283   1.082       .  S
Cu284       N287   2.077       .  S
Cu285       N295   2.077       .  S
Cu286       N288   2.060       .  S
Cu286       N294   2.060       .  S
N287        C291   1.345       .  A
N287        N288   1.322       .  A
N288        C289   1.343       .  A
C289        C290   1.380       .  A
C289        H292   1.082       .  S
C290        C368   1.467       .  S
C290        C291   1.384       .  A
C291        H293   1.082       .  S
N294        C298   1.343       .  A
N294        N295   1.321       .  A
N295        C296   1.345       .  A
C296        C297   1.387       .  A
C296        H299   1.081       .  S
C297        C505   1.481       .  S
C297        C298   1.383       .  A
C298        H300   1.083       .  S
N301        C305   1.344       .  A
N301        N302   1.323       .  A
N301       Cu309   2.075   1_545  S
N302        C303   1.348       .  A
N302       Cu308   2.082       .  S
C303        C304   1.383       .  A
C303        H306   1.082       .  S
C304        C305   1.381       .  A
C305        H307   1.082       .  S
Cu308       N311   2.082       .  S
Cu309       N319   2.075       .  S
Cu310       N312   2.078   1_565  S
Cu310       N318   2.078       .  S
N311        C315   1.346       .  A
N311        N312   1.323       .  A
N312        C313   1.347       .  A
C313        C314   1.384       .  A
C313        H316   1.082       .  S
C314        C344   1.475       .  S
C314        C315   1.385       .  A
C315        H317   1.082       .  S
N318        C322   1.345       .  A
N318        N319   1.322       .  A
N319        C320   1.346       .  A
C320        C321   1.386       .  A
C320        H323   1.083       .  S
C321        C484   1.486       .  S
C321        C322   1.387       .  A
C322        H324   1.081       .  S
C325        N326   1.356       .  A
C325        N330   1.356       .  A
C325        C469   1.474       .  S
N326        C327   1.355       .  A
C327        N328   1.355       .  A
C327        C457   1.474       .  S
N328        C329   1.359       .  A
C329        N330   1.356       .  A
C329        C640   1.488       .  S
N331        C335   1.343       .  A
N331        N332   1.322       .  A
N331       Cu339   2.055       .  S
N332        C333   1.348       .  A
N332       Cu338   2.089       .  S
C333        C334   1.385       .  A
C333        H336   1.082       .  S
C334        C358   1.465       .  S
C334        C335   1.377       .  A
C335        H337   1.082       .  S
Cu338       N341   2.090       .  S
Cu339       N349   2.055       .  S
Cu340       N342   2.073       .  S
Cu340       N348   2.071       .  S
N341        C345   1.348   1_556  A
N341        N342   1.324       .  A
N342        C343   1.345       .  A
C343        C344   1.382   1_556  A
C343        H346   1.081       .  S
C344        C345   1.386       .  A
C345        H347   1.082       .  S
N348        C352   1.345       .  A
N348        N349   1.320       .  A
N349        C350   1.340       .  A
C350        C351   1.382       .  A
C350        H353   1.082       .  S
C351        C460   1.478       .  S
C351        C352   1.387       .  A
C352        H354   1.081       .  S
N355        C359   1.345       .  A
N355        N356   1.323       .  A
N355       Cu363   2.077   1_545  S
N356        C357   1.345       .  A
N356       Cu362   2.072       .  S
C357        C358   1.380       .  A
C357        H360   1.082       .  S
C358        C359   1.382       .  A
C359        H361   1.082       .  S
Cu362       N365   2.072   1_455  S
Cu363       N373   2.076       .  S
Cu364       N366   2.059   1_565  S
Cu364       N372   2.060       .  S
N365        C369   1.344   1_556  A
N365        N366   1.321       .  A
N366        C367   1.343       .  A
C367        C368   1.381   1_556  A
C367        H370   1.082       .  S
C368        C369   1.384       .  A
C369        H371   1.082       .  S
N372        C376   1.343       .  A
N372        N373   1.322   1_655  A
N373        C374   1.345       .  A
C374        C375   1.384   1_455  A
C374        H377   1.082       .  S
C375        C448   1.476       .  S
C375        C376   1.382       .  A
C376        H378   1.081       .  S
C379        N380   1.359       .  A
C379        N384   1.357       .  A
C379        C445   1.478       .  S
N380        C381   1.360       .  A
C381        N382   1.358       .  A
C381        C604   1.486       .  S
N382        C383   1.356       .  A
C383        N384   1.355       .  A
C383        C433   1.472       .  S
N385        C389   1.341       .  A
N385        N386   1.322       .  A
N385       Cu393   2.054       .  S
N386        C387   1.344       .  A
N386       Cu392   2.069       .  S
C387        C388   1.382       .  A
C387        H390   1.082       .  S
C388        C412   1.460       .  S
C388        C389   1.377       .  A
C389        H391   1.082       .  S
Cu392       N395   2.070       .  S
Cu393       N403   2.055       .  S
Cu394       N396   2.071       .  S
Cu394       N402   2.071       .  S
N395        C399   1.344       .  A
N395        N396   1.323       .  A
N396        C397   1.344       .  A
C397        C398   1.381       .  A
C397        H400   1.082       .  S
C398        C399   1.382       .  A
C399        H401   1.082       .  S
N402        C406   1.343       .  A
N402        N403   1.321       .  A
N403        C404   1.343       .  A
C404        C405   1.380       .  A
C404        H407   1.082       .  S
C405        C436   1.471       .  S
C405        C406   1.383       .  A
C406        H408   1.082       .  S
N409        C413   1.343       .  A
N409        N410   1.322       .  A
N409       Cu417   2.069       .  S
N410        C411   1.343       .  A
N410       Cu416   2.057       .  S
C411        C412   1.378   1_545  A
C411        H414   1.082   1_545  S
C412        C413   1.381   1_565  A
C413        H415   1.082       .  S
Cu416       N419   2.057       .  S
Cu417       N427   2.070       .  S
Cu418       N420   2.061       .  S
Cu418       N426   2.061       .  S
N419        C423   1.340       .  A
N419        N420   1.320       .  A
N420        C421   1.345       .  A
C421        C422   1.383       .  A
C421        H424   1.082       .  S
C422        C423   1.381       .  A
C423        H425   1.082   1_545  S
N426        C430   1.340       .  A
N426        N427   1.322       .  A
N427        C428   1.345       .  A
C428        C429   1.385       .  A
C428        H431   1.083       .  S
C429        C472   1.474       .  S
C429        C430   1.380       .  A
C430        H432   1.082       .  S
C433        C434   1.403       .  A
C433        C438   1.413       .  A
C434        C435   1.399       .  A
C434        H443   1.085       .  S
C435        C436   1.412       .  A
C435        S439   1.803       .  S
C436        C437   1.401       .  A
C437        C438   1.396       .  A
C437        H444   1.084       .  S
C438        S440   1.803       .  S
S439        H442   1.406       .  S
S440        H441   1.407       .  S
C445        C446   1.404       .  A
C445        C450   1.415       .  A
C446        C447   1.396       .  A
C446        H455   1.084       .  S
C447        C448   1.413       .  A
C447        S451   1.803       .  S
C448        C449   1.403       .  A
C449        C450   1.399       .  A
C449        H456   1.085   1_655  S
C450        S452   1.802   1_655  S
S451        H454   1.407       .  S
S452        H453   1.407       .  S
C457        C458   1.405       .  A
C457        C462   1.412       .  A
C458        C459   1.399       .  A
C458        H467   1.083       .  S
C459        C460   1.414       .  A
C459        S463   1.802       .  S
C460        C461   1.404       .  A
C461        C462   1.394       .  A
C461        H468   1.083       .  S
C462        S464   1.804       .  S
S463        H466   1.407       .  S
S464        H465   1.407       .  S
C469        C470   1.404       .  A
C469        C474   1.413       .  A
C470        C471   1.395       .  A
C470        H479   1.085       .  S
C471        C472   1.412       .  A
C471        S475   1.802       .  S
C472        C473   1.404       .  A
C473        C474   1.397       .  A
C473        H480   1.085       .  S
C474        S476   1.803       .  S
S475        H478   1.407       .  S
S476        H477   1.407       .  S
C481        C482   1.401       .  A
C481        C486   1.413       .  A
C482        C483   1.401       .  A
C482        H491   1.084       .  S
C483        C484   1.417       .  A
C483        S487   1.802       .  S
C484        C485   1.404       .  A
C485        C486   1.400       .  A
C485        H492   1.084       .  S
C486        S488   1.801       .  S
S487        H490   1.407       .  S
S488        H489   1.406       .  S
C493        C494   1.409       .  A
C493        C498   1.412       .  A
C494        C495   1.404       .  A
C494        H503   1.083       .  S
C495        C496   1.412       .  A
C495        S499   1.803       .  S
C496        C497   1.403       .  A
C497        C498   1.392       .  A
C497        H504   1.084       .  S
C498        S500   1.798       .  S
S499        H502   1.406       .  S
S500        H501   1.407       .  S
C505        C506   1.406       .  A
C505        C510   1.413       .  A
C506        C507   1.401       .  A
C506        H515   1.083       .  S
C507        C508   1.415       .  A
C507        S511   1.803       .  S
C508        C509   1.405       .  A
C509        C510   1.396       .  A
C509        H516   1.083       .  S
C510        S512   1.803       .  S
S511        H514   1.407       .  S
S512        H513   1.407       .  S
C517        C518   1.404       .  A
C517        C522   1.414       .  A
C518        C519   1.401       .  A
C518        H527   1.084   1_655  S
C519        C520   1.415       .  A
C519        S523   1.803   1_655  S
C520        C521   1.403       .  A
C521        C522   1.395       .  A
C521        H528   1.083       .  S
C522        S524   1.804       .  S
S523        H526   1.407       .  S
S524        H525   1.407       .  S
C529        C530   1.398       .  A
C529        C534   1.409       .  A
C530        C531   1.398       .  A
C530        H539   1.084       .  S
C531        C532   1.420       .  A
C531        S535   1.803       .  S
C532        C533   1.408       .  A
C533        C534   1.400       .  A
C533        H540   1.083       .  S
C534        S536   1.804       .  S
S535        H538   1.408       .  S
S536        H537   1.405       .  S
C541        C542   1.405       .  A
C541        C546   1.414       .  A
C542        C543   1.398       .  A
C542        H551   1.085       .  S
C543        C544   1.413       .  A
C543        S547   1.803       .  S
C544        C545   1.404       .  A
C545        C546   1.399       .  A
C545        H552   1.085       .  S
C546        S548   1.802       .  S
S547        H550   1.407       .  S
S548        H549   1.407       .  S
C553        C554   1.404       .  A
C553        C558   1.413       .  A
C554        C555   1.398       .  A
C554        H563   1.085       .  S
C555        C556   1.414       .  A
C555        S559   1.803       .  S
C556        C557   1.405       .  A
C557        C558   1.399       .  A
C557        H564   1.085       .  S
C558        S560   1.802       .  S
S559        H562   1.407       .  S
S560        H561   1.407       .  S
C565        C566   1.407       .  A
C565        C570   1.417       .  A
C566        C567   1.400   1_655  A
C566        H575   1.084   1_655  S
C567        C568   1.410   1_455  A
C567        S571   1.804       .  S
C568        C569   1.400       .  A
C569        C570   1.399       .  A
C569        H576   1.085       .  S
C570        S572   1.803       .  S
S571        H574   1.406       .  S
S572        H573   1.407       .  S
C577        C578   1.403   1_455  A
C577        C582   1.412       .  A
C578        C579   1.400   1_655  A
C578        H587   1.084       .  S
C579        C580   1.413       .  A
C579        S583   1.803   1_455  S
C580        C581   1.402       .  A
C581        C582   1.399       .  A
C581        H588   1.084       .  S
C582        S584   1.804       .  S
S583        H586   1.407   1_655  S
S584        H585   1.407       .  S
C589        C590   1.401       .  A
C589        C594   1.412       .  A
C590        C591   1.399       .  A
C590        H599   1.084       .  S
C591        C592   1.415       .  A
C591        S595   1.803       .  S
C592        C593   1.405       .  A
C593        C594   1.400       .  A
C593        H600   1.083   1_655  S
C594        S596   1.804   1_655  S
S595        H598   1.406       .  S
S596        H597   1.406       .  S
C601        C602   1.405       .  A
C601        C606   1.414       .  A
C602        C603   1.400       .  A
C602        H611   1.083       .  S
C603        C604   1.416       .  A
C603        S607   1.803       .  S
C604        C605   1.406       .  A
C605        C606   1.398       .  A
C605        H612   1.083       .  S
C606        S608   1.803       .  S
S607        H610   1.408       .  S
S608        H609   1.407       .  S
C613        C614   1.406       .  A
C613        C618   1.420       .  A
C614        C615   1.398       .  A
C614        H623   1.084   1_455  S
C615        C616   1.412       .  A
C615        S619   1.804       .  S
C616        C617   1.402       .  A
C617        C618   1.405       .  A
C617        H624   1.083       .  S
C618        S620   1.810       .  S
S619        H622   1.407       .  S
S620        H621   1.406       .  S
C625        C626   1.400       .  A
C625        C630   1.409       .  A
C626        C627   1.402       .  A
C626        H635   1.084       .  S
C627        C628   1.420       .  A
C627        S631   1.801       .  S
C628        C629   1.408       .  A
C629        C630   1.395       .  A
C629        H636   1.083       .  S
C630        S632   1.805       .  S
S631        H634   1.408       .  S
S632        H633   1.405       .  S
C637        C638   1.399       .  A
C637        C642   1.408       .  A
C638        C639   1.398       .  A
C638        H647   1.085       .  S
C639        C640   1.422       .  A
C639        S643   1.802       .  S
C640        C641   1.409       .  A
C641        C642   1.394       .  A
C641        H648   1.084       .  S
C642        S644   1.805       .  S
S643        H646   1.408       .  S
S644        H645   1.407       .  S
C649        C650   1.403       .  A
C649        C654   1.409       .  A
C650        C651   1.399       .  A
C650        H659   1.084       .  S
C651        C652   1.414       .  A
C651        S655   1.803       .  S
C652        C653   1.404       .  A
C653        C654   1.394       .  A
C653        H660   1.083       .  S
C654        S656   1.801       .  S
S655        H658   1.407       .  S
S656        H657   1.407       .  S
C661        C662   1.404       .  A
C661        C666   1.412       .  A
C662        C663   1.397       .  A
C662        H671   1.084       .  S
C663        C664   1.411       .  A
C663        S667   1.803       .  S
C664        C665   1.401       .  A
C665        C666   1.397       .  A
C665        H672   1.084       .  S
C666        S668   1.800       .  S
S667        H670   1.407       .  S
S668        H669   1.407       .  S
