geometry optimzed in LAMMPS
_audit_creation_date              2020-11-30 
_audit_creation_method            'lammps2cif' 
_symmetry_space_group_name_H-M    'P1' 
_symmetry_Int_Tables_number       1 
_symmetry_cell_setting            triclinic 
loop_ 
_symmetry_equiv_pos_as_xyz 
  x,y,z 
_cell_length_a                    30.95731239 
_cell_length_b                    31.51754333283824 
_cell_length_c                    28.154712601950756 
_cell_angle_alpha                 90.26603511214212 
_cell_angle_beta                  88.79341929206154 
_cell_angle_gamma                 120.04593527420202 
loop_ 
_atom_site_label 
_atom_site_type_symbol 
_atom_site_fract_x 
_atom_site_fract_y 
_atom_site_fract_z 
_atom_site_charge 
O1          O  0.52563964  0.56112252  0.05296481    -0.75300
O2          O  0.43443030  0.47996958  0.45846743    -0.75300
O3          O  0.43612106  0.47855100  0.05445011    -0.75400
O4          O  0.52576635  0.56323177  0.45703056    -0.75400
O5          O  0.56218209  0.51753118  0.45265656    -0.75400
O6          O  0.47375162  0.43412216  0.05171372    -0.75300
O7          O  0.47117456  0.43450266  0.45499806    -0.75300
O8          O  0.56433090  0.51744644  0.04886331    -0.75400
Ni9        Ni  0.47899884  0.52229414  0.00576062     1.25400
Ni10       Ni  0.51906201  0.47399599  0.50183894     1.25400
C11         C  0.55980054  0.55262721  0.06644894     0.86900
C12         C  0.43737831  0.44371421  0.44157983     0.86800
C13         C  0.44059353  0.44273891  0.06975898     0.86800
C14         C  0.55936056  0.55491965  0.43951541     0.87000
O15         O  0.94511233  0.53462579  0.04650790    -0.75300
O16         O  0.94155073  0.44914120  0.44755609    -0.75300
O17         O  0.94259359  0.44748035  0.04366012    -0.75400
O18         O  0.94477017  0.53654539  0.45006629    -0.75400
O19         O  0.02786266  0.57434300  0.44776661    -0.75400
O20         O  0.02556780  0.48662913  0.04230988    -0.75300
O21         O  0.02445023  0.48717712  0.44547704    -0.75300
O22         O  0.02839073  0.57417779  0.04372155    -0.75400
Ni23       Ni  0.94066142  0.49067222  0.99696724     1.25400
Ni24       Ni  0.02961441  0.53197544  0.99475434     1.25400
C25         C  0.98725221  0.56878630  0.06094952     0.86900
C26         C  0.98223410  0.45459613  0.42919692     0.86800
C27         C  0.98363090  0.45290132  0.05934969     0.86800
C28         C  0.98696679  0.56967349  0.43282168     0.87000
O29         O  0.46724266  0.03432004  0.44787052    -0.75300
O30         O  0.54344215  0.02770273  0.04872469    -0.75300
O31         O  0.54846470  0.02370679  0.45262025    -0.75400
O32         O  0.46197723  0.03744233  0.04283695    -0.75400
O33         O  0.41279006  0.95638816  0.04551878    -0.75400
O34         O  0.49946477  0.94239861  0.45552253    -0.75300
O35         O  0.49464464  0.94652954  0.05205809    -0.75300
O36         O  0.41814355  0.95336227  0.44924069    -0.75400
Ni37       Ni  0.50711376  0.03341353  0.49808795     1.25400
Ni38       Ni  0.45465635  0.94679527  0.00049982     1.25400
C39         C  0.43048755  0.99544493  0.43131605     0.86900
C40         C  0.53105815  0.98636597  0.06804876     0.86800
C41         C  0.53769860  0.98084438  0.43862912     0.86800
C42         C  0.42304592  0.99921704  0.05918983     0.87000
C43         C  0.04952237  0.78579618  0.24633963     0.85600
C44         C  0.04470346  0.75619142  0.29156815    -0.54600
C45         C  0.00253150  0.71128677  0.29425827     0.08500
C46         C  0.96868779  0.69934563  0.25115203     0.19500
C47         C  0.04599728  0.75048575  0.20670821    -0.55300
C48         C  0.00337538  0.70545046  0.20806893     0.08600
C49         C  0.00087336  0.78718410  0.24464107    -0.54900
C50         C  0.95857874  0.74245457  0.24837950     0.09200
H51         H  0.07363423  0.76820451  0.31787820     0.13700
H52         H  0.93396936  0.66323114  0.25360273    -0.00500
H53         H  0.07601109  0.75878409  0.18133285     0.14000
H54         H  0.00012789  0.82116015  0.24176827     0.13800
C55         C  0.93173370  0.23828861  0.24390610     0.85600
C56         C  0.93231008  0.27181591  0.28435201    -0.54600
C57         C  0.97393557  0.31769687  0.28462464     0.08500
C58         C  0.01085785  0.32603922  0.24317952     0.19500
C59         C  0.93779637  0.26895178  0.19913558    -0.55300
C60         C  0.97881561  0.31486907  0.19861421     0.08600
C61         C  0.98072405  0.23821960  0.24708298    -0.54900
C62         C  0.02190007  0.28345542  0.24746790     0.09200
H63         H  0.90163017  0.26077520  0.30975823     0.13700
H64         H  0.04437532  0.36311358  0.24215262    -0.00500
H65         H  0.90965173  0.25780441  0.17219389     0.14000
H66         H  0.98284008  0.20486783  0.24880200     0.13800
C67         C  0.21571933  0.29474670  0.25522950     0.85600
C68         C  0.24514499  0.32096929  0.30013464    -0.54600
C69         C  0.29048227  0.32344554  0.30333894     0.08500
C70         C  0.30263184  0.30023585  0.26053957     0.19500
C71         C  0.25270048  0.32466606  0.21508635    -0.55300
C72         C  0.29781979  0.32728524  0.21747929     0.08600
C73         C  0.21308533  0.24485429  0.25529038    -0.54900
C74         C  0.25827915  0.24744497  0.25825450     0.09200
H75         H  0.23310895  0.33953862  0.32502556     0.13700
H76         H  0.33945191  0.30230577  0.26201364    -0.00500
H77         H  0.24548450  0.34510437  0.18862078     0.14000
H78         H  0.17817616  0.21027113  0.25362356     0.13800
C79         C  0.27543472  0.06976608  0.25709336     0.85600
C80         C  0.30300173  0.06156187  0.29833984    -0.54600
C81         C  0.30635373  0.01994482  0.29462705     0.08500
C82         C  0.28132423  0.98975674  0.25010259     0.19500
C83         C  0.30350998  0.06754198  0.21233601    -0.55300
C84         C  0.30711932  0.02623285  0.20878024     0.08600
C85         C  0.22463427  0.02226120  0.25697761    -0.54900
C86         C  0.22753671  0.98065019  0.25292463     0.09200
H87         H  0.31981579  0.08590380  0.32791481     0.13700
H88         H  0.28393644  0.95602271  0.24648144    -0.00500
H89         H  0.32037005  0.09697874  0.18619897     0.14000
H90         H  0.18921347  0.02151185  0.25990399     0.13800
C91         C  0.75025943  0.04256512  0.24514608     0.85600
C92         C  0.71267343  0.03848790  0.20802600    -0.54600
C93         C  0.66861355  0.99496763  0.20854043     0.08500
C94         C  0.66551480  0.95945459  0.24782666     0.19500
C95         C  0.72006716  0.03288272  0.29215722    -0.55300
C96         C  0.67601134  0.98946689  0.29386647     0.08600
C97         C  0.75594495  0.99739714  0.23837289    -0.54900
C98         C  0.71202503  0.95403695  0.23955086     0.09200
H99         H  0.71921274  0.06848210  0.18463213     0.13700
H100        H  0.62967922  0.92417639  0.24944321    -0.00500
H101        H  0.73000209  0.05975405  0.32017232     0.14000
H102        H  0.79193699  0.99943687  0.23455384     0.13800
C103        C  0.71251257  0.76847137  0.24648145     0.85600
C104        C  0.68865358  0.73704352  0.20240890    -0.54600
C105        C  0.68824527  0.69365178  0.20203871     0.08500
C106        C  0.71168219  0.68501961  0.24625576     0.19500
C107        C  0.68153697  0.73317314  0.28725441    -0.55300
C108        C  0.68182632  0.68976380  0.28864775     0.08600
C109        C  0.76436505  0.77361794  0.24854299    -0.54900
C110        C  0.76456370  0.73027003  0.24814999     0.09200
H111        H  0.67027164  0.74635047  0.17530997     0.13700
H112        H  0.71267359  0.65069949  0.24627239    -0.00500
H113        H  0.65827340  0.74047079  0.31126963     0.14000
H114        H  0.79832401  0.80909435  0.24940644     0.13800
C115        C  0.71472276  0.81841296  0.24609718    -0.07000
C116        C  0.72244937  0.84309430  0.20225679    -0.18100
C117        C  0.72165736  0.88705481  0.19859838     0.10200
C118        C  0.71114108  0.90664398  0.23955098    -0.06900
C119        C  0.70690258  0.88437437  0.28359105    -0.18200
C120        C  0.71199264  0.84285240  0.28775082     0.10200
S121        S  0.73614232  0.91633959  0.14079565    -0.33100
S122        S  0.72155838  0.82832383  0.34716579    -0.33100
H123        H  0.75583815  0.81344853  0.33345878     0.28200
H124        H  0.72274983  0.95201346  0.15003510     0.28200
H125        H  0.73010177  0.82854138  0.17030696     0.18800
H126        H  0.70313163  0.90159289  0.31554178     0.18800
C127        C  0.26324639  0.20288745  0.25905585    -0.07000
C128        C  0.24110166  0.16810436  0.22313184    -0.18100
C129        C  0.24480919  0.12545402  0.22165511     0.10200
C130        C  0.27091803  0.11638198  0.25769722    -0.03000
C131        C  0.29333892  0.15211772  0.29338999    -0.18200
C132        C  0.28928485  0.19433755  0.29469277     0.10200
S133        S  0.21595910  0.08344303  0.17295332    -0.33100
S134        S  0.31567675  0.23430029  0.34473101    -0.33100
H135        H  0.27330516  0.23901064  0.35270006     0.28200
H136        H  0.20414748  0.11344968  0.14577754     0.28200
H137        H  0.22109448  0.17476615  0.19578040     0.18800
H138        H  0.31406876  0.14816405  0.32142294     0.18800
C139        C  0.07184279  0.28875679  0.25092893    -0.07000
C140        C  0.09675865  0.29018554  0.20847228    -0.18100
C141        C  0.14067367  0.28781912  0.20819726     0.10200
C142        C  0.16410590  0.29005489  0.25190572    -0.06900
C143        C  0.13646748  0.28425965  0.29418658    -0.18200
C144        C  0.09023407  0.28211225  0.29414910     0.10200
S145        S  0.15986790  0.27559327  0.15116918    -0.33100
S146        S  0.05588607  0.26689060  0.35016781    -0.33100
H147        H  0.01719699  0.27508265  0.33757004     0.28200
H148        H  0.17593978  0.24438128  0.16896275     0.28200
H149        H  0.07953349  0.28896143  0.17500270     0.18800
H150        H  0.15010036  0.27967597  0.32776596     0.18800
C151        C  0.80044528  0.09071160  0.24321884    -0.07000
C152        C  0.82543586  0.11128514  0.28578875    -0.18100
C153        C  0.86864399  0.15735780  0.28687855     0.10200
C154        C  0.88697725  0.18589817  0.24465858    -0.06900
C155        C  0.86628079  0.16229423  0.20150867    -0.18200
C156        C  0.82481351  0.11502876  0.20012711     0.10200
S157        S  0.89900097  0.17606952  0.34327990    -0.33100
S158        S  0.80752832  0.08823706  0.14181667    -0.33100
H159        H  0.79458933  0.04067426  0.15593844     0.28200
H160        H  0.94426893  0.18136650  0.32588128     0.28200
H161        H  0.81224900  0.09088594  0.31878741     0.18800
H162        H  0.88365749  0.17951881  0.16796082     0.18800
C163        C  0.09543282  0.83767639  0.24558723    -0.07000
C164        C  0.10889147  0.86364139  0.28876776    -0.18100
C165        C  0.15132080  0.91002534  0.29235438     0.10200
C166        C  0.18246354  0.93148612  0.25191409    -0.06900
C167        C  0.16744331  0.90802780  0.20805649    -0.18200
C168        C  0.12295291  0.86311867  0.20388927     0.10200
S169        S  0.16176139  0.93984732  0.34938186    -0.33100
S170        S  0.10088651  0.84553192  0.14424106    -0.33100
H171        H  0.05030172  0.82691917  0.15661627     0.28200
H172        H  0.21257118  0.97413987  0.34322260     0.28200
H173        H  0.08571678  0.84789964  0.32036064     0.18800
H174        H  0.18883144  0.92657480  0.17624303     0.18800
C175        C  0.81226871  0.72880874  0.25015057    -0.07000
C176        C  0.84938624  0.76180683  0.28068320    -0.18100
C177        C  0.89633009  0.76564263  0.28243088     0.10200
C178        C  0.90778122  0.73657520  0.25201309    -0.06900
C179        C  0.87032793  0.70198052  0.22310000    -0.18200
C180        C  0.82283564  0.69760421  0.22166832     0.10200
S181        S  0.93896015  0.80739628  0.32554937    -0.33100
S182        S  0.77817016  0.65382573  0.18118838    -0.33100
H183        H  0.80914680  0.63796348  0.16003555     0.28200
H184        H  0.96283974  0.78041002  0.33456871     0.28200
H185        H  0.84160072  0.78473747  0.30398945     0.18800
H186        H  0.87904216  0.67940198  0.20030315     0.18800
C187        C  0.55993901  0.98504740  0.10893545    -0.07000
C188        C  0.56864755  0.94560428  0.11365696    -0.18100
C189        C  0.60148828  0.94609254  0.14781259     0.10200
C190        C  0.62693766  0.98737183  0.17738146    -0.06900
C191        C  0.61536549  0.02506135  0.17476441    -0.18200
C192        C  0.58175337  0.02398167  0.14176878     0.10200
S193        S  0.61266580  0.89528332  0.15088046    -0.33100
S194        S  0.56760606  0.07296685  0.14430053    -0.33100
H195        H  0.51703148  0.04306157  0.13305755     0.28200
H196        H  0.57581793  0.86466832  0.11885722     0.28200
H197        H  0.55139145  0.91534627  0.08910885     0.18800
H198        H  0.63299933  0.05596338  0.19863779     0.18800
C199        C  0.56973346  0.97600702  0.40203566    -0.07000
C200        C  0.61584079  0.98197960  0.41527942    -0.18100
C201        C  0.64998343  0.98286091  0.38119314     0.10200
C202        C  0.63822523  0.97859352  0.33239495    -0.06900
C203        C  0.59122130  0.97068392  0.31950117    -0.18200
C204        C  0.55698501  0.96937719  0.35362109     0.10200
S205        S  0.70793010  0.99021943  0.40249990    -0.33100
S206        S  0.49981714  0.96392976  0.33254441    -0.33100
H207        H  0.46971001  0.93657208  0.37136729     0.28200
H208        H  0.71879434  0.96966320  0.36296001     0.28200
H209        H  0.62565217  0.98679997  0.45243630     0.18800
H210        H  0.58204143  0.96813219  0.28227062     0.18800
C211        C  0.40122836  0.99979864  0.39205874    -0.07000
C212        C  0.35333859  0.96028603  0.38259821    -0.18100
C213        C  0.32203805  0.96473595  0.34976617     0.10200
C214        C  0.33806042  0.01035306  0.32717008    -0.06900
C215        C  0.38626083  0.04916779  0.33579904    -0.18200
C216        C  0.41849172  0.04389831  0.36586864     0.10200
S217        S  0.26095553  0.91284055  0.33962438    -0.33100
S218        S  0.48166919  0.09463844  0.36707373    -0.33100
H219        H  0.50334527  0.06461067  0.36540594     0.28200
H220        H  0.26683622  0.87841559  0.36612614     0.28200
H221        H  0.33982748  0.92618326  0.40188975     0.18800
H222        H  0.39959226  0.08414031  0.31826638     0.18800
C223        C  0.33721054  0.01951807  0.17083245    -0.07000
C224        C  0.31447790  0.97715014  0.14295372    -0.18100
C225        C  0.34043156  0.97011619  0.10508828     0.10200
C226        C  0.39124377  0.00534896  0.09581542    -0.06900
C227        C  0.41372368  0.04762090  0.12396179    -0.18200
C228        C  0.38772177  0.05498033  0.16117381     0.10200
S229        S  0.30556890  0.91697188  0.06861131    -0.33100
S230        S  0.42245419  0.10961954  0.19588636    -0.33100
H231        H  0.39712543  0.08855065  0.23863653     0.28200
H232        H  0.32634125  0.94212177  0.02548045     0.28200
H233        H  0.27566100  0.95007806  0.14970147     0.18800
H234        H  0.45263820  0.07486083  0.11789867     0.18800
C235        C  0.99433215  0.66762747  0.17093627    -0.07000
C236        C  0.00819955  0.68403491  0.12360793    -0.18100
C237        C  0.00545858  0.65248527  0.08721344     0.10200
C238        C  0.98831308  0.60285559  0.09761590    -0.06900
C239        C  0.97272330  0.58554823  0.14410624    -0.18200
C240        C  0.97589909  0.61722414  0.18102464     0.10200
S241        S  0.02403193  0.67760871  0.02802547    -0.33100
S242        S  0.95894926  0.59243338  0.24046275    -0.33100
H243        H  0.95378787  0.54628322  0.23093915     0.28200
H244        H  0.98740032  0.63564595  0.00506252     0.28200
H245        H  0.02146929  0.72208307  0.11472442     0.18800
H246        H  0.95925531  0.54720683  0.15160465     0.18800
C247        C  0.98904722  0.60352557  0.39545526    -0.07000
C248        C  0.95390180  0.61941777  0.39652406    -0.18100
C249        C  0.95704179  0.65441073  0.36369323     0.10200
C250        C  0.99660370  0.67448001  0.32997753    -0.06900
C251        C  0.03144511  0.65852052  0.32881491    -0.18200
C252        C  0.02718979  0.62229326  0.35992155     0.10200
S253        S  0.91193880  0.67474084  0.36613148    -0.33100
S254        S  0.06969927  0.59949268  0.35016972    -0.33100
H255        H  0.03380515  0.55026044  0.35989789     0.28200
H256        H  0.88351888  0.64510840  0.40480889     0.28200
H257        H  0.92465470  0.60513193  0.42365894     0.18800
H258        H  0.06100990  0.67293281  0.30190178     0.18800
C259        C  0.98067519  0.42256189  0.38910927    -0.07000
C260        C  0.02328866  0.41880850  0.37881472    -0.18100
C261        C  0.02329741  0.38678510  0.34381775     0.10200
C262        C  0.97898709  0.35625765  0.31903988    -0.06900
C263        C  0.93713418  0.36161535  0.32785743    -0.18200
C264        C  0.93780081  0.39494055  0.36130942     0.10200
S265        S  0.07987431  0.38472795  0.33298722    -0.33100
S266        S  0.88335817  0.40171803  0.36464121    -0.33100
H267        H  0.91107104  0.45329026  0.36564533     0.28200
H268        H  0.10909769  0.41863095  0.36773910     0.28200
H269        H  0.05667818  0.44056590  0.39891702     0.18800
H270        H  0.90365269  0.34025150  0.30761970     0.18800
C271        C  0.98294592  0.41974184  0.09737300    -0.07000
C272        C  0.02542466  0.41490058  0.10310443    -0.18100
C273        C  0.02596856  0.38225192  0.13672985     0.10200
C274        C  0.98283629  0.35293945  0.16475282    -0.06900
C275        C  0.94110959  0.35889170  0.16015312    -0.18200
C276        C  0.94098638  0.39237774  0.12789811     0.10200
S277        S  0.08112328  0.37713730  0.14225680    -0.33100
S278        S  0.88693406  0.39985151  0.12974849    -0.33100
H279        H  0.91504882  0.45140590  0.12846108     0.28200
H280        H  0.10808063  0.40758705  0.10348847     0.28200
H281        H  0.05812666  0.43626371  0.08068785     0.18800
H282        H  0.90842020  0.33781641  0.18279343     0.18800
C283        C  0.59422067  0.58437309  0.10283388    -0.07000
C284        C  0.64358267  0.61831400  0.08931901    -0.18100
C285        C  0.67543235  0.65490612  0.12055080     0.10200
C286        C  0.65830749  0.65550876  0.16736671    -0.06900
C287        C  0.60883947  0.62178352  0.18054251    -0.18200
C288        C  0.57683651  0.58605524  0.14906556     0.10200
S289        S  0.73518767  0.70145963  0.09654977    -0.33100
S290        S  0.51404270  0.54403678  0.16966063    -0.33100
H291        H  0.50917010  0.50393259  0.14331697     0.28200
H292        H  0.75562937  0.72831539  0.13801632     0.28200
H293        H  0.65663121  0.61790235  0.05341332     0.18800
H294        H  0.59473843  0.62386385  0.21553170     0.18800
C295        C  0.65464372  0.65257966  0.32794060    -0.07000
C296        C  0.65090302  0.67088848  0.37278208    -0.18100
C297        C  0.62134303  0.64015545  0.40993592     0.10200
C298        C  0.59529901  0.58901352  0.40351010    -0.06900
C299        C  0.60215447  0.56995826  0.36089724    -0.18200
C300        C  0.63063044  0.60061732  0.32274373     0.10200
S301        S  0.61915455  0.66885588  0.46483235    -0.33100
S302        S  0.63224433  0.57099550  0.26824750    -0.33100
H303        H  0.60141976  0.52202037  0.28288070     0.28200
H304        H  0.61112883  0.62981371  0.49438173     0.28200
H305        H  0.67100184  0.70996873  0.37922893     0.18800
H306        H  0.58313566  0.53057291  0.35692450     0.18800
C307        C  0.40082208  0.41208330  0.40628549    -0.07000
C308        C  0.35109384  0.38155387  0.42121820    -0.18100
C309        C  0.31443121  0.35106004  0.38901598     0.10200
C310        C  0.32765601  0.35214964  0.34036859    -0.06900
C311        C  0.37782682  0.38216665  0.32595230    -0.18200
C312        C  0.41429398  0.41204520  0.35818923     0.10200
S313        S  0.25209545  0.30891347  0.41125558    -0.33100
S314        S  0.47705059  0.45037172  0.33548014    -0.33100
H315        H  0.48818020  0.49021936  0.36539277     0.28200
H316        H  0.25948815  0.32511240  0.45858510     0.28200
H317        H  0.34129610  0.38116773  0.45842731     0.18800
H318        H  0.38865705  0.38377632  0.28888155     0.18800
C319        C  0.40760997  0.41259756  0.10986679    -0.07000
C320        C  0.38834279  0.43464725  0.14058359    -0.18100
C321        C  0.35517016  0.40855579  0.17776056     0.10200
C322        C  0.33933080  0.35840762  0.18423632    -0.06900
C323        C  0.35963727  0.33645724  0.15494850    -0.18200
C324        C  0.39374437  0.36297380  0.11807293     0.10200
S325        S  0.33430776  0.44161375  0.21536883    -0.33100
S326        S  0.41480335  0.33028543  0.08060003    -0.33100
H327        H  0.46468667  0.35915673  0.09449020     0.28200
H328        H  0.32916105  0.41495594  0.25691153     0.28200
H329        H  0.39931843  0.47286704  0.13577463     0.18800
H330        H  0.34738294  0.29791249  0.15967468     0.18800
O331        O  0.52590391  0.56086781  0.55286940    -0.75300
O332        O  0.43426817  0.47992906  0.95865611    -0.75300
O333        O  0.43617314  0.47856146  0.55432238    -0.75400
O334        O  0.52530863  0.56339781  0.95714559    -0.75400
O335        O  0.56209915  0.51802957  0.95276230    -0.75400
O336        O  0.47351368  0.43387575  0.55164309    -0.75300
O337        O  0.47138376  0.43479594  0.95511447    -0.75300
O338        O  0.56430013  0.51691741  0.54879404    -0.75400
Ni339      Ni  0.47924342  0.52220971  0.50561538     1.25400
Ni340      Ni  0.51917984  0.47440201  0.00193529     1.25400
C341        C  0.55991161  0.55217117  0.56640382     0.86900
C342        C  0.43744334  0.44381009  0.94174123     0.86800
C343        C  0.44049104  0.44268016  0.56971219     0.86800
C344        C  0.55898973  0.55524572  0.93959440     0.87000
O345        O  0.94503541  0.53463480  0.54659675    -0.75300
O346        O  0.94170424  0.44943614  0.94720492    -0.75300
O347        O  0.94258678  0.44751041  0.54402919    -0.75400
O348        O  0.94501644  0.53684436  0.94997937    -0.75400
O349        O  0.02810803  0.57463679  0.94781791    -0.75400
O350        O  0.02557212  0.48677106  0.54257333    -0.75300
O351        O  0.02459584  0.48743222  0.94517451    -0.75300
O352        O  0.02831469  0.57427913  0.54364321    -0.75400
Ni353      Ni  0.94053419  0.49052973  0.49719486     1.25400
Ni354      Ni  0.02949358  0.53190175  0.49486004     1.25400
C355        C  0.98719158  0.56888585  0.56090823     0.86900
C356        C  0.98238287  0.45492818  0.92881171     0.86800
C357        C  0.98368124  0.45302652  0.55967131     0.86800
C358        C  0.98724232  0.57001243  0.93283299     0.87000
O359        O  0.46719418  0.03428222  0.94735374    -0.75300
O360        O  0.54347209  0.02718556  0.54889909    -0.75300
O361        O  0.54866300  0.02419198  0.95238220    -0.75400
O362        O  0.46225940  0.03734725  0.54345766    -0.75400
O363        O  0.41278766  0.95633423  0.54598493    -0.75400
O364        O  0.49984025  0.94285756  0.95520457    -0.75300
O365        O  0.49436409  0.94607039  0.55240777    -0.75300
O366        O  0.41829015  0.95328892  0.94885584    -0.75400
Ni367      Ni  0.50707401  0.03368849  0.99770568     1.25400
Ni368      Ni  0.45443424  0.94656587  0.50086290     1.25400
C369        C  0.43052419  0.99529503  0.93085547     0.86900
C370        C  0.53091879  0.98586317  0.56831979     0.86800
C371        C  0.53799442  0.98137977  0.93832331     0.86800
C372        C  0.42327395  0.99917558  0.55983023     0.87000
C373        C  0.04932491  0.78592368  0.74630608     0.85600
C374        C  0.04451228  0.75639675  0.79157524    -0.54600
C375        C  0.00242106  0.71143133  0.79423005     0.08500
C376        C  0.96863343  0.69938739  0.75105759     0.19500
C377        C  0.04597762  0.75062671  0.70673357    -0.55300
C378        C  0.00341594  0.70556527  0.70803754     0.08600
C379        C  0.00061410  0.78718832  0.74449825    -0.54900
C380        C  0.95840126  0.74239840  0.74820247     0.09200
H381        H  0.07339227  0.76853345  0.81795327     0.13700
H382        H  0.93394517  0.66325007  0.75348726    -0.00500
H383        H  0.07608089  0.75889822  0.68148722     0.14000
H384        H  0.99975112  0.82111018  0.74168677     0.13800
C385        C  0.93198555  0.23836482  0.74383887     0.85600
C386        C  0.93235152  0.27210056  0.78398923    -0.54600
C387        C  0.97398816  0.31799514  0.78422878     0.08500
C388        C  0.01106513  0.32613736  0.74300536     0.19500
C389        C  0.93824559  0.26879038  0.69883288    -0.55300
C390        C  0.97922735  0.31472686  0.69828328     0.08600
C391        C  0.98097566  0.23836072  0.74749446    -0.54900
C392        C  0.02211998  0.28362090  0.74781665     0.09200
H393        H  0.90157824  0.26114730  0.80926202     0.13700
H394        H  0.04457625  0.36320915  0.74183118    -0.00500
H395        H  0.91016389  0.25753434  0.67181138     0.14000
H396        H  0.98311790  0.20503842  0.74952167     0.13800
C397        C  0.21589834  0.29487056  0.75578496     0.85600
C398        C  0.24531721  0.32074423  0.80078591    -0.54600
C399        C  0.29062993  0.32316159  0.80379854     0.08500
C400        C  0.30275815  0.30019296  0.76078347     0.19500
C401        C  0.25291892  0.32503918  0.71574881    -0.55300
C402        C  0.29801663  0.32757630  0.71795898     0.08600
C403        C  0.21318593  0.24493992  0.75543995    -0.54900
C404        C  0.25834458  0.24743820  0.75826184     0.09200
H405        H  0.23336965  0.33923221  0.82586933     0.13700
H406        H  0.33955731  0.30220420  0.76217996    -0.00500
H407        H  0.24568365  0.34559798  0.68943422     0.14000
H408        H  0.17824500  0.21039381  0.75372429     0.13800
C409        C  0.27519955  0.06961693  0.75742172     0.85600
C410        C  0.30256997  0.06131516  0.79878959    -0.54600
C411        C  0.30587912  0.01967513  0.79508480     0.08500
C412        C  0.28107547  0.98960738  0.75050251     0.19500
C413        C  0.30346616  0.06745372  0.71277935    -0.55300
C414        C  0.30713427  0.02617450  0.70930306     0.08600
C415        C  0.22440612  0.02214428  0.75716897    -0.54900
C416        C  0.22731694  0.98054503  0.75318288     0.09200
H417        H  0.31937305  0.08565388  0.82838766     0.13700
H418        H  0.28367135  0.95586139  0.74692115    -0.00500
H419        H  0.32045506  0.09693556  0.68669955     0.14000
H420        H  0.18898277  0.02140204  0.76000310     0.13800
C421        C  0.75069354  0.04248526  0.74504326     0.85600
C422        C  0.71326182  0.03836134  0.70770517    -0.54600
C423        C  0.66908932  0.99490119  0.70829779     0.08500
C424        C  0.66581945  0.95948838  0.74774790     0.19500
C425        C  0.72036302  0.03300669  0.79192089    -0.55300
C426        C  0.67626818  0.98965616  0.79366645     0.08600
C427        C  0.75625682  0.99722487  0.73852420    -0.54900
C428        C  0.71226337  0.95393513  0.73964146     0.09200
H429        H  0.71999328  0.06829241  0.68412774     0.13700
H430        H  0.62994168  0.92426181  0.74943486    -0.00500
H431        H  0.73022005  0.05999635  0.81980452     0.14000
H432        H  0.79220362  0.99914809  0.73483634     0.13800
C433        C  0.71244798  0.76824972  0.74625468     0.85600
C434        C  0.68863554  0.73673000  0.70221145    -0.54600
C435        C  0.68815037  0.69329651  0.70201340     0.08500
C436        C  0.71143884  0.68470627  0.74636959     0.19500
C437        C  0.68135293  0.73309427  0.78703170    -0.55300
C438        C  0.68157010  0.68967363  0.78862627     0.08600
C439        C  0.76425427  0.77330558  0.74851138    -0.54900
C440        C  0.76434258  0.72990674  0.74828269     0.09200
H441        H  0.67030939  0.74598028  0.67501090     0.13700
H442        H  0.71234531  0.65032227  0.74651830    -0.00500
H443        H  0.65811176  0.74053842  0.81093858     0.14000
H444        H  0.79826414  0.80874047  0.74938237     0.13800
C445        C  0.71469568  0.81819801  0.74584919    -0.07000
C446        C  0.72195639  0.84269847  0.70197954    -0.18100
C447        C  0.72121170  0.88668655  0.69840930     0.10200
C448        C  0.71121328  0.90647923  0.73951261    -0.06900
C449        C  0.70735735  0.88434838  0.78353296    -0.18200
C450        C  0.71238296  0.84279006  0.78756544     0.10200
S451        S  0.73509631  0.91573011  0.64050584    -0.33100
S452        S  0.72216513  0.82826386  0.84690447    -0.33100
H453        H  0.75632507  0.81329588  0.83304845     0.28200
H454        H  0.72257964  0.95196757  0.65009642     0.28200
H455        H  0.72928089  0.82803390  0.66993118     0.18800
H456        H  0.70393209  0.90170370  0.81554397     0.18800
C457        C  0.26316857  0.20279885  0.75910376    -0.07000
C458        C  0.24112486  0.16805702  0.72312345    -0.18100
C459        C  0.24460300  0.12526500  0.72182763     0.10200
C460        C  0.27067863  0.11621582  0.75793073    -0.03000
C461        C  0.29290578  0.15186973  0.79368895    -0.18200
C462        C  0.28889233  0.19409045  0.79493907     0.10200
S463        S  0.21593825  0.08324475  0.67307262    -0.33100
S464        S  0.31488033  0.23384423  0.84516385    -0.33100
H465        H  0.27227879  0.23820151  0.85294422     0.28200
H466        H  0.19434146  0.10801000  0.65125620     0.28200
H467        H  0.22158912  0.17499250  0.69549371     0.18800
H468        H  0.31344627  0.14781629  0.82187392     0.18800
C469        C  0.07208380  0.28902430  0.75142313    -0.07000
C470        C  0.09699134  0.29033275  0.70901625    -0.18100
C471        C  0.14089417  0.28797321  0.70881406     0.10200
C472        C  0.16433475  0.29030631  0.75253828    -0.06900
C473        C  0.13677482  0.28478651  0.79482722    -0.18200
C474        C  0.09054487  0.28266433  0.79472758     0.10200
S475        S  0.16019846  0.27585032  0.65179866    -0.33100
S476        S  0.05630871  0.26791605  0.85079751    -0.33100
H477        H  0.01747519  0.27579874  0.83795045     0.28200
H478        H  0.17591057  0.24433863  0.66953188     0.28200
H479        H  0.07976433  0.28901126  0.67552232     0.18800
H480        H  0.15041203  0.28033789  0.82845648     0.18800
C481        C  0.80092852  0.09060597  0.74321873    -0.07000
C482        C  0.82560641  0.11145812  0.78586198    -0.18100
C483        C  0.86871683  0.15760741  0.78694642     0.10200
C484        C  0.88726296  0.18594452  0.74463050    -0.06900
C485        C  0.86690329  0.16206940  0.70148507    -0.18200
C486        C  0.82555461  0.11471070  0.70015612     0.10200
S487        S  0.89871421  0.17666741  0.84348245    -0.33100
S488        S  0.80868926  0.08740641  0.64202896    -0.33100
H489        H  0.79731311  0.04039568  0.65657566     0.28200
H490        H  0.94404958  0.18177335  0.82653497     0.28200
H491        H  0.81228322  0.09122648  0.81893283     0.18800
H492        H  0.88446474  0.17915584  0.66794316     0.18800
C493        C  0.09514851  0.83781246  0.74561660    -0.07000
C494        C  0.10821243  0.86391886  0.78872460    -0.18100
C495        C  0.15073210  0.91021521  0.79242120     0.10200
C496        C  0.18227846  0.93141628  0.75217084    -0.06900
C497        C  0.16769160  0.90779219  0.70837116    -0.18200
C498        C  0.12315088  0.86301096  0.70404226     0.10200
S499        S  0.16089762  0.94024181  0.84930944    -0.33100
S500        S  0.10153485  0.84550233  0.64426395    -0.33100
H501        H  0.05090826  0.82714603  0.65629235     0.28200
H502        H  0.21199296  0.97372271  0.84360275     0.28200
H503        H  0.08472643  0.84829215  0.82016502     0.18800
H504        H  0.18942167  0.92617817  0.67665867     0.18800
C505        C  0.81197571  0.72836388  0.75035569    -0.07000
C506        C  0.84894330  0.76106540  0.78116891    -0.18100
C507        C  0.89594697  0.76501700  0.78277162     0.10200
C508        C  0.90757005  0.73637195  0.75193068    -0.06900
C509        C  0.87024016  0.70202118  0.72275934    -0.18200
C510        C  0.82270461  0.69753671  0.72147831     0.10200
S511        S  0.93846957  0.80642964  0.82615884    -0.33100
S512        S  0.77807567  0.65392835  0.68089665    -0.33100
H513        H  0.81017278  0.64089200  0.65725206     0.28200
H514        H  0.96278994  0.77974445  0.83454540     0.28200
H515        H  0.84101116  0.78372226  0.80472837     0.18800
H516        H  0.87903606  0.67964734  0.69973816     0.18800
C517        C  0.55982222  0.98462339  0.60922342    -0.07000
C518        C  0.56795556  0.94486794  0.61446722    -0.18100
C519        C  0.60111223  0.94556502  0.64838074     0.10200
C520        C  0.62736078  0.98731480  0.67722668    -0.06900
C521        C  0.61628319  0.02530504  0.67419720    -0.18200
C522        C  0.58246290  0.02409201  0.64140892     0.10200
S523        S  0.61177145  0.89444802  0.65186988    -0.33100
S524        S  0.56927093  0.07373494  0.64331210    -0.33100
H525        H  0.51843331  0.04415263  0.63286250     0.28200
H526        H  0.57367010  0.86321758  0.62119828     0.28200
H527        H  0.55009774  0.91422401  0.59041871     0.18800
H528        H  0.63447072  0.05656413  0.69758404     0.18800
C529        C  0.57010978  0.97666663  0.90175092    -0.07000
C530        C  0.61646055  0.98327009  0.91496802    -0.18100
C531        C  0.65049756  0.98389069  0.88093849     0.10200
C532        C  0.63850724  0.97896411  0.83218075    -0.06900
C533        C  0.59131183  0.97055459  0.81929960    -0.18200
C534        C  0.55707486  0.96928987  0.85341131     0.10200
S535        S  0.70857463  0.99159651  0.90224014    -0.33100
S536        S  0.49945493  0.96282756  0.83240569    -0.33100
H537        H  0.46967936  0.93513542  0.87124874     0.28200
H538        H  0.71864426  0.96968967  0.86331637     0.28200
H539        H  0.62646759  0.98861170  0.95207255     0.18800
H540        H  0.58193097  0.96747806  0.78209318     0.18800
C541        C  0.40116484  0.99944914  0.89165139    -0.07000
C542        C  0.35320887  0.95991718  0.88243297    -0.18100
C543        C  0.32169274  0.96440652  0.84991422     0.10200
C544        C  0.33763259  0.01006516  0.82744343    -0.06900
C545        C  0.38591351  0.04883663  0.83576303    -0.18200
C546        C  0.41833994  0.04349830  0.86544027     0.10200
S547        S  0.26050056  0.91255032  0.83997002    -0.33100
S548        S  0.48165099  0.09403735  0.86606878    -0.33100
H549        H  0.50308709  0.06379608  0.86457587     0.28200
H550        H  0.26567943  0.87852000  0.86786187     0.28200
H551        H  0.33983845  0.92581237  0.90167805     0.18800
H552        H  0.39916480  0.08380157  0.81825982     0.18800
C553        C  0.33745705  0.01950181  0.67155643    -0.07000
C554        C  0.31484376  0.97705900  0.64379599    -0.18100
C555        C  0.34079293  0.97005685  0.60592768     0.10200
C556        C  0.39158460  0.00531293  0.59660845    -0.06900
C557        C  0.41405402  0.04758605  0.62476616    -0.18200
C558        C  0.38797713  0.05501574  0.66189253     0.10200
S559        S  0.30585453  0.91700481  0.56937057    -0.33100
S560        S  0.42259692  0.10993162  0.69628837    -0.33100
H561        H  0.39672525  0.08957356  0.73897588     0.28200
H562        H  0.32634321  0.94236840  0.52627737     0.28200
H563        H  0.27604115  0.94994233  0.65054473     0.18800
H564        H  0.45295602  0.07484328  0.61866898     0.18800
C565        C  0.99449885  0.66779335  0.67089347    -0.07000
C566        C  0.00844529  0.68422589  0.62357168    -0.18100
C567        C  0.00552830  0.65263078  0.58714684     0.10200
C568        C  0.98829549  0.60298863  0.59754807    -0.06900
C569        C  0.97270729  0.58568769  0.64403451    -0.18200
C570        C  0.97591548  0.61736342  0.68095820     0.10200
S571        S  0.02378669  0.67762825  0.52788612    -0.33100
S572        S  0.95888260  0.59256327  0.74039677    -0.33100
H573        H  0.95159945  0.54565263  0.73057720     0.28200
H574        H  0.98677174  0.63571460  0.50515403     0.28200
H575        H  0.02179616  0.72229254  0.61469858     0.18800
H576        H  0.95922369  0.54734255  0.65151625     0.18800
C577        C  0.98934359  0.60392440  0.89552067    -0.07000
C578        C  0.95403605  0.61961537  0.89652547    -0.18100
C579        C  0.95700816  0.65447753  0.86363043     0.10200
C580        C  0.99660436  0.67468524  0.82996042    -0.06900
C581        C  0.03160549  0.65892637  0.82885402    -0.18200
C582        C  0.02752573  0.62281843  0.86002305     0.10200
S583        S  0.91167838  0.67451463  0.86601312    -0.33100
S584        S  0.07034589  0.60036957  0.85041485    -0.33100
H585        H  0.03460739  0.55105467  0.85999313     0.28200
H586        H  0.88120402  0.64214702  0.90227601     0.28200
H587        H  0.92481243  0.60531114  0.92368099     0.18800
H588        H  0.06119111  0.67343066  0.80196102     0.18800
C589        C  0.98080383  0.42298652  0.88862115    -0.07000
C590        C  0.02350651  0.41948046  0.87806440    -0.18100
C591        C  0.02347295  0.38738582  0.84313524     0.10200
C592        C  0.97907317  0.35665655  0.81854449    -0.06900
C593        C  0.93714426  0.36184022  0.82755581    -0.18200
C594        C  0.93779700  0.39512625  0.86104639     0.10200
S595        S  0.08015108  0.38554283  0.83219069    -0.33100
S596        S  0.88309424  0.40144854  0.86478338    -0.33100
H597        H  0.91051111  0.45303590  0.86556224     0.28200
H598        H  0.10862194  0.41775198  0.86836854     0.28200
H599        H  0.05701898  0.44148621  0.89792666     0.18800
H600        H  0.90357100  0.34031597  0.80748512     0.18800
C601        C  0.98313509  0.41988950  0.59762328    -0.07000
C602        C  0.02554035  0.41484726  0.60295342    -0.18100
C603        C  0.02614171  0.38206114  0.63636193     0.10200
C604        C  0.98311432  0.35278235  0.66451385    -0.06900
C605        C  0.94148667  0.35896129  0.66035641    -0.18200
C606        C  0.94133491  0.39261717  0.62834379     0.10200
S607        S  0.08113680  0.37657485  0.64135336    -0.33100
S608        S  0.88747549  0.40039602  0.63070549    -0.33100
H609        H  0.91574404  0.45193145  0.62903671     0.28200
H610        H  0.10957458  0.41009469  0.60502279     0.28200
H611        H  0.05807693  0.43606295  0.58029715     0.18800
H612        H  0.90892005  0.33793673  0.68315849     0.18800
C613        C  0.59431672  0.58379287  0.60286420    -0.07000
C614        C  0.64371454  0.61767408  0.58941827    -0.18100
C615        C  0.67547155  0.65440044  0.62058389     0.10200
C616        C  0.65827323  0.65509882  0.66735178    -0.06900
C617        C  0.60879022  0.62137880  0.68048364    -0.18200
C618        C  0.57684699  0.58557967  0.64902912     0.10200
S619        S  0.73516159  0.70099690  0.59648882    -0.33100
S620        S  0.51400087  0.54363976  0.66954958    -0.33100
H621        H  0.50909024  0.50351051  0.64322693     0.28200
H622        H  0.75506964  0.72879310  0.63757313     0.28200
H623        H  0.65683974  0.61717311  0.55356745     0.18800
H624        H  0.59461048  0.62355090  0.71540263     0.18800
C625        C  0.65428395  0.65268239  0.82797714    -0.07000
C626        C  0.65044228  0.67110922  0.87272507    -0.18100
C627        C  0.62066371  0.64045716  0.90983219     0.10200
C628        C  0.59468774  0.58929862  0.90349839    -0.06900
C629        C  0.60150121  0.57016055  0.86093235    -0.18200
C630        C  0.62989164  0.60074433  0.82278153     0.10200
S631        S  0.61812860  0.66926183  0.96454074    -0.33100
S632        S  0.63145814  0.57075594  0.76863708    -0.33100
H633        H  0.58744866  0.52583515  0.77750078     0.28200
H634        H  0.61039774  0.63046837  0.99432080     0.28200
H635        H  0.67059857  0.71019804  0.87911646     0.18800
H636        H  0.58288197  0.53076328  0.85697178     0.18800
C637        C  0.40093606  0.41204623  0.90652510    -0.07000
C638        C  0.35137083  0.38104654  0.92162692    -0.18100
C639        C  0.31474184  0.35039545  0.88949198     0.10200
C640        C  0.32784642  0.35180569  0.84076945    -0.06900
C641        C  0.37788911  0.38222516  0.82619281    -0.18200
C642        C  0.41430094  0.41234050  0.85835044     0.10200
S643        S  0.25254671  0.30790058  0.91182248    -0.33100
S644        S  0.47678285  0.45156580  0.83544722    -0.33100
H645        H  0.48700092  0.49136633  0.86511180     0.28200
H646        H  0.26133557  0.32056467  0.96004280     0.28200
H647        H  0.34164818  0.38056103  0.95887115     0.18800
H648        H  0.38860157  0.38404794  0.78906182     0.18800
C649        C  0.40752148  0.41267002  0.60994365    -0.07000
C650        C  0.38808877  0.43472340  0.64047620    -0.18100
C651        C  0.35512657  0.40877346  0.67786494     0.10200
C652        C  0.33949060  0.35870048  0.68462816    -0.06900
C653        C  0.35999437  0.33678625  0.65555623    -0.18200
C654        C  0.39401770  0.36319964  0.61858494     0.10200
S655        S  0.33445812  0.44195389  0.71553382    -0.33100
S656        S  0.41558018  0.33055595  0.58167230    -0.33100
H657        H  0.46537567  0.35987655  0.59565138     0.28200
H658        H  0.32935815  0.41531564  0.75709655     0.28200
H659        H  0.39886515  0.47286441  0.63543246     0.18800
H660        H  0.34799620  0.29833096  0.66055756     0.18800
loop_ 
_geom_bond_atom_site_label_1 
_geom_bond_atom_site_label_2 
_geom_bond_distance 
_geom_bond_site_symmetry_2 
_ccdc_geom_bond_type 
O1           Ni9   1.909       .  S
O1           C11   1.279       .  A
O2         Ni339   1.916       .  S
O2           C12   1.280       .  A
O3           Ni9   1.911       .  S
O3           C13   1.282       .  A
O4         Ni339   1.920       .  S
O4           C14   1.282       .  A
O5          Ni10   1.920       .  S
O5           C14   1.281       .  A
O6         Ni340   1.923       .  S
O6           C13   1.281       .  A
O7          Ni10   1.925       .  S
O7           C12   1.282       .  A
O8         Ni340   1.924       .  S
O8           C11   1.281       .  A
Ni9         O332   1.915   1_554  S
Ni9         O334   1.919   1_554  S
Ni9        Ni340   2.390       .  S
Ni10        O336   1.924       .  S
Ni10        O338   1.924       .  S
Ni10       Ni339   2.389       .  S
C11         C283   1.468       .  S
C12         C307   1.473       .  S
C13         C319   1.487       .  S
C14         C298   1.478       .  S
O15         Ni23   1.919   1_554  S
O15          C25   1.280       .  A
O16        Ni353   1.918       .  S
O16          C26   1.280       .  A
O17         Ni23   1.920   1_554  S
O17          C27   1.282       .  A
O18        Ni353   1.924       .  S
O18          C28   1.282       .  A
O19        Ni354   1.907       .  S
O19          C28   1.279   1_455  A
O20         Ni24   1.919   1_554  S
O20          C27   1.281   1_455  A
O21        Ni354   1.927       .  S
O21          C26   1.284   1_455  A
O22         Ni24   1.924   1_554  S
O22          C25   1.282   1_455  A
Ni23        O346   1.917       .  S
Ni23        O348   1.924       .  S
Ni23        Ni24   2.384   1_655  S
Ni24        O349   1.907       .  S
Ni24        O351   1.928       .  S
C25         C238   1.475       .  S
C26         C259   1.496       .  S
C27         C271   1.492       .  S
C28         C247   1.479       .  S
O29         Ni37   1.906       .  S
O29          C39   1.278   1_545  A
O30        Ni367   1.910   1_554  S
O30          C40   1.280   1_545  A
O31         Ni37   1.921       .  S
O31          C41   1.281   1_545  A
O32        Ni367   1.915   1_554  S
O32          C42   1.282   1_545  A
O33         Ni38   1.923       .  S
O33          C42   1.281       .  A
O34        Ni368   1.923       .  S
O34          C41   1.281       .  A
O35         Ni38   1.930       .  S
O35          C40   1.284       .  A
O36        Ni368   1.932       .  S
O36          C39   1.285       .  A
Ni37        O360   1.909       .  S
Ni37        O362   1.916       .  S
Ni37       Ni368   2.384   1_545  S
Ni38        O364   1.922   1_554  S
Ni38        O366   1.930   1_554  S
Ni38       Ni367   2.385   1_564  S
C39         C211   1.493       .  S
C40         C187   1.486       .  S
C41         C199   1.475       .  S
C42         C226   1.489   1_565  S
C43          C44   1.542       .  S
C43          C49   1.530       .  S
C43          C47   1.539       .  S
C43         C163   1.538       .  S
C44          H51   1.086       .  S
C44          C45   1.364       .  D
C45          C46   1.538   1_455  S
C45         C250   1.477   1_455  S
C46          C50   1.542       .  S
C46          C48   1.550   1_655  S
C46          H52   1.108       .  S
C47          H53   1.083       .  S
C47          C48   1.371       .  D
C48         C235   1.503   1_455  S
C49          H54   1.086       .  S
C49          C50   1.364   1_455  D
C50         C178   1.490       .  S
C55          C56   1.544       .  S
C55          C61   1.522       .  S
C55          C59   1.542       .  S
C55         C154   1.535       .  S
C56          H63   1.085       .  S
C56          C57   1.373       .  D
C57          C58   1.544   1_655  S
C57         C262   1.498       .  S
C58          C62   1.548       .  S
C58          C60   1.543   1_455  S
C58          H64   1.108       .  S
C59          H65   1.085       .  S
C59          C60   1.366       .  D
C60         C274   1.490       .  S
C61          H66   1.087       .  S
C61          C62   1.356   1_655  D
C62         C139   1.475       .  S
C67          C68   1.548       .  S
C67          C73   1.533       .  S
C67          C71   1.533       .  S
C67         C142   1.534       .  S
C68          H75   1.084       .  S
C68          C69   1.371       .  D
C69          C70   1.542       .  S
C69         C310   1.493       .  S
C70          C74   1.540       .  S
C70          C72   1.537       .  S
C70          H76   1.110       .  S
C71          H77   1.084       .  S
C71          C72   1.360       .  D
C72         C322   1.478       .  S
C73          H78   1.086       .  S
C73          C74   1.364       .  D
C74         C127   1.488       .  S
C79          C80   1.552       .  S
C79          C85   1.535       .  S
C79          C83   1.537       .  S
C79         C130   1.544       .  S
C80          H87   1.079       .  S
C80          C81   1.370       .  D
C81          C82   1.539   1_545  S
C81         C214   1.494       .  S
C82          C86   1.542       .  S
C82          C84   1.538   1_565  S
C82          H88   1.110       .  S
C83          H89   1.086       .  S
C83          C84   1.364       .  D
C84         C223   1.486       .  S
C85          H90   1.086       .  S
C85          C86   1.363   1_545  D
C86         C166   1.478       .  S
C91          C92   1.537       .  S
C91          C97   1.530   1_545  S
C91          C95   1.544       .  S
C91         C151   1.535       .  S
C92          H99   1.085       .  S
C92          C93   1.367   1_545  D
C93          C94   1.544       .  S
C93         C190   1.493       .  S
C94          C98   1.545       .  S
C94          C96   1.542       .  S
C94         H100   1.110       .  S
C95         H101   1.085       .  S
C95          C96   1.365   1_545  D
C96         C202   1.487       .  S
C97         H102   1.086       .  S
C97          C98   1.362       .  D
C98         C118   1.480       .  S
C103        C104   1.537       .  S
C103        C109   1.533       .  S
C103        C107   1.540       .  S
C103        C115   1.541       .  S
C104        H111   1.086       .  S
C104        C105   1.361       .  D
C105        C106   1.546       .  S
C105        C286   1.473       .  S
C106        C110   1.543       .  S
C106        C108   1.546       .  S
C106        H112   1.097       .  S
C107        H113   1.083       .  S
C107        C108   1.373       .  D
C108        C295   1.514       .  S
C109        H114   1.086       .  S
C109        C110   1.369       .  D
C110        C175   1.503       .  S
C115        C116   1.413       .  A
C115        C120   1.424       .  A
C116        C117   1.402       .  A
C116        H125   1.082       .  S
C117        C118   1.413       .  A
C117        S121   1.808       .  S
C118        C119   1.399       .  A
C119        C120   1.400       .  A
C119        H126   1.083       .  S
C120        S122   1.805       .  S
S121        H124   1.401       .  S
S122        H123   1.405       .  S
C127        C128   1.400       .  A
C127        C132   1.408       .  A
C128        C129   1.406       .  A
C128        H137   1.083       .  S
C129        C130   1.426       .  A
C129        S133   1.811       .  S
C130        C131   1.413       .  A
C131        C132   1.398       .  A
C131        H138   1.074       .  S
C132        S134   1.800       .  S
S133        H136   1.407       .  S
S134        H135   1.405       .  S
C139        C140   1.397       .  A
C139        C144   1.414       .  A
C140        C141   1.398       .  A
C140        H149   1.084       .  S
C141        C142   1.425       .  A
C141        S145   1.806       .  S
C142        C143   1.409       .  A
C143        C144   1.399       .  A
C143        H150   1.083       .  S
C144        S146   1.809       .  S
S145        H148   1.404       .  S
S146        H147   1.398       .  S
C151        C152   1.409       .  A
C151        C156   1.421       .  A
C152        C153   1.398       .  A
C152        H161   1.082       .  S
C153        C154   1.419       .  A
C153        S157   1.803       .  S
C154        C155   1.410       .  A
C155        C156   1.398       .  A
C155        H162   1.080       .  S
C156        S158   1.807       .  S
S157        H160   1.403       .  S
S158        H159   1.401       .  S
C163        C164   1.411       .  A
C163        C168   1.425       .  A
C164        C165   1.398       .  A
C164        H173   1.083       .  S
C165        C166   1.411       .  A
C165        S169   1.808       .  S
C166        C167   1.400       .  A
C167        C168   1.403       .  A
C167        H174   1.084       .  S
C168        S170   1.804       .  S
S169        H172   1.400       .  S
S170        H171   1.406       .  S
C175        C176   1.406       .  A
C175        C180   1.422       .  A
C176        C177   1.399       .  A
C176        H185   1.084       .  S
C177        C178   1.415       .  A
C177        S181   1.806       .  S
C178        C179   1.400       .  A
C179        C180   1.408       .  A
C179        H186   1.083       .  S
C180        S182   1.804       .  S
S181        H184   1.405       .  S
S182        H183   1.406       .  S
C187        C188   1.405       .  A
C187        C192   1.415   1_565  A
C188        C189   1.409       .  A
C188        H197   1.082       .  S
C189        C190   1.413       .  A
C189        S193   1.803       .  S
C190        C191   1.405   1_565  A
C191        C192   1.397       .  A
C191        H198   1.084       .  S
C192        S194   1.804       .  S
S193        H196   1.406       .  S
S194        H195   1.407       .  S
C199        C200   1.402       .  A
C199        C204   1.412       .  A
C200        C201   1.403       .  A
C200        H209   1.084       .  S
C201        C202   1.417       .  A
C201        S205   1.805       .  S
C202        C203   1.403       .  A
C203        C204   1.401       .  A
C203        H210   1.084       .  S
C204        S206   1.804       .  S
S205        H208   1.403       .  S
S206        H207   1.403       .  S
C211        C212   1.409       .  A
C211        C216   1.418   1_565  A
C212        C213   1.410       .  A
C212        H221   1.082       .  S
C213        C214   1.414   1_565  A
C213        S217   1.804       .  S
C214        C215   1.402       .  A
C215        C216   1.394       .  A
C215        H222   1.082       .  S
C216        S218   1.804       .  S
S217        H220   1.406       .  S
S218        H219   1.408       .  S
C223        C224   1.402   1_545  A
C223        C228   1.415       .  A
C224        C225   1.404       .  A
C224        H233   1.083       .  S
C225        C226   1.418   1_565  A
C225        S229   1.802       .  S
C226        C227   1.404       .  A
C227        C228   1.396       .  A
C227        H234   1.084       .  S
C228        S230   1.803       .  S
S229        H232   1.408       .  S
S230        H231   1.397       .  S
C235        C236   1.410   1_655  A
C235        C240   1.421       .  A
C236        C237   1.398       .  A
C236        H245   1.084       .  S
C237        C238   1.407   1_455  A
C237        S241   1.803       .  S
C238        C239   1.400       .  A
C239        C240   1.408       .  A
C239        H246   1.083       .  S
C240        S242   1.803       .  S
S241        H244   1.405   1_455  S
S242        H243   1.407       .  S
C247        C248   1.407       .  A
C247        C252   1.415   1_655  A
C248        C249   1.407       .  A
C248        H257   1.083       .  S
C249        C250   1.408       .  A
C249        S253   1.805       .  S
C250        C251   1.400   1_655  A
C251        C252   1.394       .  A
C251        H258   1.084       .  S
C252        S254   1.804       .  S
S253        H256   1.407       .  S
S254        H255   1.408       .  S
C259        C260   1.406   1_655  A
C259        C264   1.419       .  A
C260        C261   1.407       .  A
C260        H269   1.082       .  S
C261        C262   1.416   1_455  A
C261        S265   1.804       .  S
C262        C263   1.405       .  A
C263        C264   1.400       .  A
C263        H270   1.084       .  S
C264        S266   1.802       .  S
S265        H268   1.406       .  S
S266        H267   1.408       .  S
C271        C272   1.410   1_655  A
C271        C276   1.417       .  A
C272        C273   1.408       .  A
C272        H281   1.082       .  S
C273        C274   1.409   1_455  A
C273        S277   1.803       .  S
C274        C275   1.404       .  A
C275        C276   1.397       .  A
C275        H282   1.084       .  S
C276        S278   1.803       .  S
S277        H280   1.406       .  S
S278        H279   1.408       .  S
C283        C284   1.402       .  A
C283        C288   1.409       .  A
C284        C285   1.401       .  A
C284        H293   1.083       .  S
C285        C286   1.414       .  A
C285        S289   1.808       .  S
C286        C287   1.401       .  A
C287        C288   1.395       .  A
C287        H294   1.084       .  S
C288        S290   1.803       .  S
S289        H292   1.402       .  S
S290        H291   1.406       .  S
C295        C296   1.412       .  A
C295        C300   1.428       .  A
C296        C297   1.397       .  A
C296        H305   1.083       .  S
C297        C298   1.408       .  A
C297        S301   1.804       .  S
C298        C299   1.398       .  A
C299        C300   1.408       .  A
C299        H306   1.082       .  S
C300        S302   1.805       .  S
S301        H304   1.401       .  S
S302        H303   1.406       .  S
C307        C308   1.402       .  A
C307        C312   1.409       .  A
C308        C309   1.406       .  A
C308        H317   1.083       .  S
C309        C310   1.417       .  A
C309        S313   1.808       .  S
C310        C311   1.406       .  A
C311        C312   1.398       .  A
C311        H318   1.083       .  S
C312        S314   1.802       .  S
S313        H316   1.407       .  S
S314        H315   1.405       .  S
C319        C320   1.405       .  A
C319        C324   1.418       .  A
C320        C321   1.394       .  A
C320        H329   1.084       .  S
C321        C322   1.412       .  A
C321        S325   1.805       .  S
C322        C323   1.401       .  A
C323        C324   1.403       .  A
C323        H330   1.084       .  S
C324        S326   1.798       .  S
S325        H328   1.402       .  S
S326        H327   1.407       .  S
O331       Ni339   1.909       .  S
O331        C341   1.279       .  A
O332        C342   1.280       .  A
O333       Ni339   1.912       .  S
O333        C343   1.282       .  A
O334        C344   1.282       .  A
O335       Ni340   1.919   1_556  S
O335        C344   1.281       .  A
O336        C343   1.281       .  A
O337       Ni340   1.924   1_556  S
O337        C342   1.282       .  A
O338        C341   1.281       .  A
C341        C613   1.468       .  S
C342        C637   1.472       .  S
C343        C649   1.488       .  S
C344        C628   1.477       .  S
O345       Ni353   1.919       .  S
O345        C355   1.280       .  A
O346        C356   1.280       .  A
O347       Ni353   1.920       .  S
O347        C357   1.282       .  A
O348        C358   1.282       .  A
O349        C358   1.279   1_455  A
O350       Ni354   1.918       .  S
O350        C357   1.281   1_455  A
O351        C356   1.284   1_455  A
O352       Ni354   1.924       .  S
O352        C355   1.282   1_455  A
Ni353      Ni354   2.385   1_655  S
C355        C568   1.475       .  S
C356        C589   1.496       .  S
C357        C601   1.492       .  S
C358        C577   1.479       .  S
O359       Ni367   1.906       .  S
O359        C369   1.278   1_545  A
O360        C370   1.279   1_545  A
O361       Ni367   1.921       .  S
O361        C371   1.281   1_545  A
O362        C372   1.282   1_545  A
O363       Ni368   1.922       .  S
O363        C372   1.281       .  A
O364        C371   1.281       .  A
O365       Ni368   1.931       .  S
O365        C370   1.284       .  A
O366        C369   1.284       .  A
C369        C541   1.491       .  S
C370        C517   1.486       .  S
C371        C529   1.474       .  S
C372        C556   1.489   1_565  S
C373        C374   1.542       .  S
C373        C379   1.530       .  S
C373        C377   1.539       .  S
C373        C493   1.537       .  S
C374        H381   1.086       .  S
C374        C375   1.364       .  D
C375        C376   1.539   1_455  S
C375        C580   1.477   1_455  S
C376        C380   1.542       .  S
C376        C378   1.550   1_655  S
C376        H382   1.108       .  S
C377        H383   1.083       .  S
C377        C378   1.371       .  D
C378        C565   1.503   1_455  S
C379        H384   1.086   1_455  S
C379        C380   1.364   1_455  D
C380        C508   1.489       .  S
C385        C386   1.545       .  S
C385        C391   1.522       .  S
C385        C389   1.542       .  S
C385        C484   1.535       .  S
C386        H393   1.085       .  S
C386        C387   1.374       .  D
C387        C388   1.543   1_655  S
C387        C592   1.499       .  S
C388        C392   1.547       .  S
C388        C390   1.542   1_455  S
C388        H394   1.108       .  S
C389        H395   1.085       .  S
C389        C390   1.366       .  D
C390        C604   1.489       .  S
C391        H396   1.087       .  S
C391        C392   1.356   1_655  D
C392        C469   1.475       .  S
C397        C398   1.548       .  S
C397        C403   1.533       .  S
C397        C401   1.534       .  S
C397        C472   1.534       .  S
C398        H405   1.084       .  S
C398        C399   1.371       .  D
C399        C400   1.542       .  S
C399        C640   1.492       .  S
C400        C404   1.541       .  S
C400        C402   1.538       .  S
C400        H406   1.110       .  S
C401        H407   1.084       .  S
C401        C402   1.361       .  D
C402        C652   1.479       .  S
C403        H408   1.086       .  S
C403        C404   1.364       .  D
C404        C457   1.488       .  S
C409        C410   1.552       .  S
C409        C415   1.535       .  S
C409        C413   1.537       .  S
C409        C460   1.543       .  S
C410        H417   1.080       .  S
C410        C411   1.370       .  D
C411        C412   1.538   1_545  S
C411        C544   1.492       .  S
C412        C416   1.541       .  S
C412        C414   1.538   1_565  S
C412        H418   1.110       .  S
C413        H419   1.086       .  S
C413        C414   1.364       .  D
C414        C553   1.486       .  S
C415        H420   1.086       .  S
C415        C416   1.362   1_545  D
C416        C496   1.477       .  S
C421        C422   1.538       .  S
C421        C427   1.530   1_545  S
C421        C425   1.544       .  S
C421        C481   1.535       .  S
C422        H429   1.085       .  S
C422        C423   1.367   1_545  D
C423        C424   1.544       .  S
C423        C520   1.492       .  S
C424        C428   1.545       .  S
C424        C426   1.542       .  S
C424        H430   1.110       .  S
C425        H431   1.085       .  S
C425        C426   1.365   1_545  D
C426        C532   1.487       .  S
C427        H432   1.086       .  S
C427        C428   1.362       .  D
C428        C448   1.480       .  S
C433        C434   1.537       .  S
C433        C439   1.533       .  S
C433        C437   1.539       .  S
C433        C445   1.541       .  S
C434        H441   1.086       .  S
C434        C435   1.361       .  D
C435        C436   1.546       .  S
C435        C616   1.473       .  S
C436        C440   1.543       .  S
C436        C438   1.547       .  S
C436        H442   1.098       .  S
C437        H443   1.083       .  S
C437        C438   1.373       .  D
C438        C625   1.512       .  S
C439        H444   1.086       .  S
C439        C440   1.369       .  D
C440        C505   1.502       .  S
C445        C446   1.413       .  A
C445        C450   1.424       .  A
C446        C447   1.402       .  A
C446        H455   1.082       .  S
C447        C448   1.413       .  A
C447        S451   1.809       .  S
C448        C449   1.398       .  A
C449        C450   1.400       .  A
C449        H456   1.083       .  S
C450        S452   1.805       .  S
S451        H454   1.401       .  S
S452        H453   1.405       .  S
C457        C458   1.401       .  A
C457        C462   1.408       .  A
C458        C459   1.406       .  A
C458        H467   1.083       .  S
C459        C460   1.426       .  A
C459        S463   1.812       .  S
C460        C461   1.412       .  A
C461        C462   1.397       .  A
C461        H468   1.074       .  S
C462        S464   1.800       .  S
S463        H466   1.406       .  S
S464        H465   1.405       .  S
C469        C470   1.397       .  A
C469        C474   1.414       .  A
C470        C471   1.398       .  A
C470        H479   1.084       .  S
C471        C472   1.425       .  A
C471        S475   1.806       .  S
C472        C473   1.409       .  A
C473        C474   1.399       .  A
C473        H480   1.082       .  S
C474        S476   1.810       .  S
S475        H478   1.404       .  S
S476        H477   1.399       .  S
C481        C482   1.409       .  A
C481        C486   1.421       .  A
C482        C483   1.398       .  A
C482        H491   1.081       .  S
C483        C484   1.419       .  A
C483        S487   1.803       .  S
C484        C485   1.410       .  A
C485        C486   1.399       .  A
C485        H492   1.080       .  S
C486        S488   1.807       .  S
S487        H490   1.403       .  S
S488        H489   1.401       .  S
C493        C494   1.411       .  A
C493        C498   1.424       .  A
C494        C495   1.398       .  A
C494        H503   1.083       .  S
C495        C496   1.411       .  A
C495        S499   1.808       .  S
C496        C497   1.399       .  A
C497        C498   1.402       .  A
C497        H504   1.084       .  S
C498        S500   1.804       .  S
S499        H502   1.400       .  S
S500        H501   1.406       .  S
C505        C506   1.406       .  A
C505        C510   1.421       .  A
C506        C507   1.399       .  A
C506        H515   1.084       .  S
C507        C508   1.415       .  A
C507        S511   1.806       .  S
C508        C509   1.400       .  A
C509        C510   1.407       .  A
C509        H516   1.083       .  S
C510        S512   1.804       .  S
S511        H514   1.405       .  S
S512        H513   1.406       .  S
C517        C518   1.405       .  A
C517        C522   1.415   1_565  A
C518        C519   1.409       .  A
C518        H527   1.083       .  S
C519        C520   1.414       .  A
C519        S523   1.803       .  S
C520        C521   1.404   1_565  A
C521        C522   1.396       .  A
C521        H528   1.084       .  S
C522        S524   1.804       .  S
S523        H526   1.406       .  S
S524        H525   1.407       .  S
C529        C530   1.401       .  A
C529        C534   1.413       .  A
C530        C531   1.402       .  A
C530        H539   1.084       .  S
C531        C532   1.417       .  A
C531        S535   1.805       .  S
C532        C533   1.404       .  A
C533        C534   1.401       .  A
C533        H540   1.084       .  S
C534        S536   1.803       .  S
S535        H538   1.403       .  S
S536        H537   1.403       .  S
C541        C542   1.409       .  A
C541        C546   1.417   1_565  A
C542        C543   1.410       .  A
C542        H551   1.082       .  S
C543        C544   1.414   1_565  A
C543        S547   1.804       .  S
C544        C545   1.402       .  A
C545        C546   1.393       .  A
C545        H552   1.081       .  S
C546        S548   1.804       .  S
S547        H550   1.406       .  S
S548        H549   1.408       .  S
C553        C554   1.402   1_545  A
C553        C558   1.416       .  A
C554        C555   1.404       .  A
C554        H563   1.083       .  S
C555        C556   1.418   1_565  A
C555        S559   1.801       .  S
C556        C557   1.405       .  A
C557        C558   1.397       .  A
C557        H564   1.084       .  S
C558        S560   1.804       .  S
S559        H562   1.408       .  S
S560        H561   1.396       .  S
C565        C566   1.410   1_655  A
C565        C570   1.421       .  A
C566        C567   1.399       .  A
C566        H575   1.084       .  S
C567        C568   1.407   1_455  A
C567        S571   1.803       .  S
C568        C569   1.400       .  A
C569        C570   1.408       .  A
C569        H576   1.083       .  S
C570        S572   1.803       .  S
S571        H574   1.405   1_455  S
S572        H573   1.407       .  S
C577        C578   1.407       .  A
C577        C582   1.415   1_655  A
C578        C579   1.406       .  A
C578        H587   1.083       .  S
C579        C580   1.408       .  A
C579        S583   1.804       .  S
C580        C581   1.400   1_655  A
C581        C582   1.394       .  A
C581        H588   1.084       .  S
C582        S584   1.804       .  S
S583        H586   1.407       .  S
S584        H585   1.408       .  S
C589        C590   1.406   1_655  A
C589        C594   1.419       .  A
C590        C591   1.407       .  A
C590        H599   1.082       .  S
C591        C592   1.417   1_455  A
C591        S595   1.804       .  S
C592        C593   1.405       .  A
C593        C594   1.400       .  A
C593        H600   1.084       .  S
C594        S596   1.802       .  S
S595        H598   1.406       .  S
S596        H597   1.408       .  S
C601        C602   1.410   1_655  A
C601        C606   1.417       .  A
C602        C603   1.408       .  A
C602        H611   1.082       .  S
C603        C604   1.409   1_455  A
C603        S607   1.804       .  S
C604        C605   1.404       .  A
C605        C606   1.397       .  A
C605        H612   1.084       .  S
C606        S608   1.803       .  S
S607        H610   1.406       .  S
S608        H609   1.408       .  S
C613        C614   1.402       .  A
C613        C618   1.409       .  A
C614        C615   1.401       .  A
C614        H623   1.083       .  S
C615        C616   1.414       .  A
C615        S619   1.808       .  S
C616        C617   1.401       .  A
C617        C618   1.395       .  A
C617        H624   1.084       .  S
C618        S620   1.803       .  S
S619        H622   1.402       .  S
S620        H621   1.406       .  S
C625        C626   1.412       .  A
C625        C630   1.427       .  A
C626        C627   1.397       .  A
C626        H635   1.083       .  S
C627        C628   1.408       .  A
C627        S631   1.804       .  S
C628        C629   1.398       .  A
C629        C630   1.406       .  A
C629        H636   1.082       .  S
C630        S632   1.802       .  S
S631        H634   1.401       .  S
S632        H633   1.407       .  S
C637        C638   1.402       .  A
C637        C642   1.408       .  A
C638        C639   1.406       .  A
C638        H647   1.083       .  S
C639        C640   1.417       .  A
C639        S643   1.809       .  S
C640        C641   1.406       .  A
C641        C642   1.398       .  A
C641        H648   1.083       .  S
C642        S644   1.802       .  S
S643        H646   1.407       .  S
S644        H645   1.405       .  S
C649        C650   1.405       .  A
C649        C654   1.418       .  A
C650        C651   1.395       .  A
C650        H659   1.084       .  S
C651        C652   1.412       .  A
C651        S655   1.805       .  S
C652        C653   1.401       .  A
C653        C654   1.403       .  A
C653        H660   1.084       .  S
C654        S656   1.798       .  S
S655        H658   1.403       .  S
S656        H657   1.407       .  S
