geometry optimzed in LAMMPS
_audit_creation_date              2020-11-30 
_audit_creation_method            'lammps2cif' 
_symmetry_space_group_name_H-M    'P1' 
_symmetry_Int_Tables_number       1 
_symmetry_cell_setting            triclinic 
loop_ 
_symmetry_equiv_pos_as_xyz 
  x,y,z 
_cell_length_a                    41.60562842 
_cell_length_b                    42.62316219021536 
_cell_length_c                    35.8479442066252 
_cell_angle_alpha                 88.5456355692957 
_cell_angle_beta                  90.3770439007327 
_cell_angle_gamma                 89.39927705844788 
loop_ 
_atom_site_label 
_atom_site_type_symbol 
_atom_site_fract_x 
_atom_site_fract_y 
_atom_site_fract_z 
_atom_site_charge 
C1          C  0.30923576  0.25833929  0.09362724    -0.01400
C2          C  0.72053531  0.31344253  0.38737936    -0.01400
C3          C  0.22886299  0.68060346  0.42133255    -0.01400
O4          O  0.51724863  0.47694294  0.45359986    -0.56300
C5          C  0.43399756  0.53700370  0.46212407     0.75900
O6          O  0.47007440  0.47753701  0.05605892    -0.57900
C7          C  0.53590337  0.46353600  0.47739412     0.75900
C8          C  0.53539270  0.55027244  0.01389308     0.78300
Cd9        Cd  0.49402775  0.49838616  0.99615247     1.37500
O10         O  0.45306487  0.51875802  0.44537269    -0.56700
O11         O  0.51702469  0.55347636  0.48625391    -0.55500
C12         C  0.45608959  0.45493081  0.04046386     0.78300
O13         O  0.52263438  0.53429004  0.04018334    -0.57900
O14         O  0.44894665  0.53571882  0.99325802    -0.56300
O15         O  0.53765889  0.45998829  0.00225426    -0.56300
O16         O  0.45538561  0.45883036  0.51228867    -0.55500
C17         C  0.74835600  0.18318317  0.14216333    -0.01400
C18         C  0.67373749  0.74530405  0.08995060    -0.01400
C19         C  0.81089611  0.75430059  0.34026198    -0.01400
O20         O  0.96816671  0.01690337  0.19392907    -0.56700
C21         C  0.04701019  0.96022572  0.24186490     0.75900
O22         O  0.00924149  0.03403274  0.30954068    -0.57900
C23         C  0.94651701  0.03384674  0.20835823     0.75900
C24         C  0.95107127  0.95534560  0.28896495     0.78300
Cd25       Cd  0.99331027  0.00122817  0.25606501     1.37500
O26         O  0.03342634  0.97527401  0.21492438    -0.56700
O27         O  0.96225398  0.95306748  0.25638847    -0.55500
C28         C  0.02940245  0.05023284  0.29122520     0.78300
O29         O  0.95956550  0.97907922  0.30711410    -0.57900
O30         O  0.03552961  0.96409391  0.27399514    -0.56300
O31         O  0.94765048  0.03604822  0.24345093    -0.56300
O32         O  0.03200620  0.04436214  0.25691880    -0.55500
C33         C  0.24106269  0.81503684  0.16755902    -0.01400
O34         O  0.53763374  0.03210822  0.13201848    -0.56700
C35         C  0.43515239  0.96524546  0.10621231     0.75900
O36         O  0.45777080  0.04521498  0.10192205    -0.57900
C37         C  0.54533601  0.03930407  0.09862814     0.75900
C38         C  0.53037900  0.94666083  0.13086034     0.78300
Cd39       Cd  0.49158877  0.00107961  0.11722014     1.37500
O40         O  0.44734048  0.96980254  0.13826315    -0.56700
O41         O  0.52133403  0.96331485  0.15808102    -0.55500
C42         C  0.45332211  0.05389751  0.13520518     0.78300
O43         O  0.52115851  0.95540792  0.09826567    -0.57900
O44         O  0.44958944  0.97727757  0.07799923    -0.56300
O45         O  0.52777231  0.02854388  0.07260307    -0.56300
O46         O  0.46715738  0.03780943  0.16138485    -0.55500
C47         C  0.17191066  0.24654483  0.33920461    -0.01400
O48         O  0.00426974  0.52311282  0.44580947    -0.56700
C49         C  0.92413639  0.45795997  0.41164623     0.75900
O50         O  0.96677452  0.52931969  0.33815384    -0.57900
C51         C  0.02725151  0.53341193  0.42580652     0.75900
C52         C  0.02377142  0.44229121  0.38191008     0.78300
Cd53       Cd  0.98015964  0.49374987  0.39297255     1.37500
O54         O  0.94002399  0.47160633  0.43689451    -0.56700
O55         O  0.01495102  0.45125883  0.41369276    -0.55500
C56         C  0.94745096  0.54583751  0.35713487     0.78300
O57         O  0.01166487  0.45678356  0.35349246    -0.57900
O58         O  0.93466217  0.46054739  0.37856236    -0.56300
O59         O  0.02786950  0.52496561  0.39219260    -0.56300
O60         O  0.94310717  0.53719888  0.39075417    -0.55500
C61         C  0.12632119  0.32665279  0.34991732     0.19800
C62         C  0.13009994  0.35228568  0.37324339    -0.18300
C63         C  0.10748772  0.37682022  0.37285434    -0.10600
C64         C  0.08066047  0.37646627  0.34870892     0.22100
C65         C  0.07738111  0.35132539  0.32449454    -0.19900
C66         C  0.09981291  0.32651904  0.32524234    -0.10700
C67         C  0.05611513  0.40221433  0.34828590    -0.14900
C68         C  0.04769349  0.41653781  0.37979108    -0.28800
C69         C  0.15142998  0.30149610  0.35043801    -0.03000
C70         C  0.14544085  0.27153578  0.34166420    -0.39600
H71         H  0.15059720  0.35327749  0.39195867     0.13200
H72         H  0.11133425  0.39630736  0.39108485     0.12800
H73         H  0.05721852  0.35071202  0.30526493     0.12300
H74         H  0.09671232  0.30768897  0.30590276     0.12500
H75         H  0.04377763  0.40837216  0.32227343     0.15300
H76         H  0.05845147  0.40860952  0.40610937     0.14000
H77         H  0.17571095  0.30772963  0.35855250     0.11700
H78         H  0.12079675  0.26503726  0.33551864     0.13700
C79         C  0.36284769  0.91270927  0.13246809     0.19800
C80         C  0.35869500  0.89043335  0.16149702    -0.18300
C81         C  0.32999556  0.87401409  0.16520703    -0.10600
C82         C  0.30444321  0.87949007  0.13994939     0.22100
C83         C  0.30830822  0.90203490  0.11103724    -0.19900
C84         C  0.33733592  0.91835917  0.10707856    -0.10700
C85         C  0.27324262  0.86298611  0.14468122    -0.14900
C86         C  0.27171066  0.83346534  0.15919256    -0.28800
C87         C  0.39320051  0.93093725  0.13203426    -0.03000
C88         C  0.40520813  0.94692844  0.10238430    -0.39600
H89         H  0.37769034  0.88595124  0.18182269     0.13200
H90         H  0.32759071  0.85767882  0.18860509     0.12800
H91         H  0.28881115  0.90704760  0.09154537     0.12300
H92         H  0.33931965  0.93592478  0.08492407     0.12500
H93         H  0.25146266  0.87513782  0.13539102     0.15300
H94         H  0.29414907  0.82074566  0.16436739     0.14000
H95         H  0.40683712  0.93070145  0.15802553     0.11700
H96         H  0.39331956  0.94652442  0.07537342     0.13700
C97         C  0.13361305  0.16272373  0.33172306     0.19800
C98         C  0.11727655  0.14299799  0.35702475    -0.18300
C99         C  0.09710111  0.11931680  0.34422667    -0.10600
C100        C  0.09314639  0.11470915  0.30567677     0.22100
C101        C  0.11064568  0.13360970  0.28057736    -0.19900
C102        C  0.13062419  0.15726749  0.29333521    -0.10700
C103        C  0.07194331  0.09018750  0.29003934    -0.14900
C104        C  0.04911468  0.07445848  0.30916137    -0.28800
C105        C  0.15306549  0.18913319  0.34590044    -0.03000
C106        C  0.15534721  0.21664172  0.32657079    -0.39600
H107        H  0.11956937  0.14638250  0.38676680     0.13200
H108        H  0.08492638  0.10472774  0.36465130     0.12800
H109        H  0.10865528  0.13024808  0.25079880     0.12300
H110        H  0.14378886  0.17116277  0.27301863     0.12500
H111        H  0.07496753  0.08524243  0.26066137     0.15300
H112        H  0.04469936  0.07905096  0.33828655     0.14000
H113        H  0.16347117  0.18646075  0.37362625     0.11700
H114        H  0.14303380  0.21886474  0.29976664     0.13700
C115        C  0.17525360  0.87711974  0.19350435     0.19800
C116        C  0.16894938  0.89246924  0.22686023    -0.18300
C117        C  0.14106603  0.91058696  0.23083629    -0.10600
C118        C  0.11862690  0.91385714  0.20137521     0.22100
C119        C  0.12516508  0.89898668  0.16770505    -0.19900
C120        C  0.15310363  0.88070179  0.16376020    -0.10700
C121        C  0.08906034  0.93367528  0.20451092    -0.14900
C122        C  0.07518261  0.93935429  0.23747476    -0.28800
C123        C  0.20557232  0.85843849  0.19094679    -0.03000
C124        C  0.21046401  0.83532213  0.16656568    -0.39600
H125        H  0.18575555  0.89048410  0.25003855     0.13200
H126        H  0.13768563  0.92256759  0.25677218     0.12800
H127        H  0.10858481  0.90152192  0.14437141     0.12300
H128        H  0.15746040  0.87003408  0.13719859     0.12500
H129        H  0.07820140  0.94342568  0.17905974     0.15300
H130        H  0.08472153  0.92830183  0.26285376     0.14000
H131        H  0.22428734  0.86269913  0.21145631     0.11700
H132        H  0.19157606  0.82961818  0.14693456     0.13700
C133        C  0.89950798  0.88084687  0.29964834     0.19800
C134        C  0.90226371  0.85054135  0.28548640    -0.18300
C135        C  0.88036207  0.82721068  0.29556243    -0.10600
C136        C  0.85500142  0.83372207  0.32008535     0.22100
C137        C  0.85187044  0.86420397  0.33368791    -0.19900
C138        C  0.87392922  0.88752438  0.32377269    -0.10700
C139        C  0.83069080  0.80976907  0.33076503    -0.14900
C140        C  0.83655473  0.77858899  0.33063493    -0.28800
C141        C  0.92251353  0.90515110  0.28657482    -0.03000
C142        C  0.92891508  0.93168752  0.30475753    -0.39600
H143        H  0.92136475  0.84492568  0.26628699     0.13200
H144        H  0.88298437  0.80442344  0.28327754     0.12800
H145        H  0.83223928  0.87000527  0.35206710     0.12300
H146        H  0.87032977  0.91084398  0.33429763     0.12500
H147        H  0.80728773  0.81800079  0.33989810     0.15300
H148        H  0.86026047  0.77025631  0.32291891     0.14000
H149        H  0.93519933  0.90065158  0.26079927     0.11700
H150        H  0.91802939  0.93619560  0.33153446     0.13700
C151        C  0.86565842  0.67973459  0.35212327     0.19800
C152        C  0.89821054  0.67474446  0.34381109    -0.18300
C153        C  0.91110724  0.64422480  0.34348835    -0.10600
C154        C  0.89173476  0.61831336  0.35254048     0.22100
C155        C  0.85914015  0.62344477  0.36056463    -0.19900
C156        C  0.84609352  0.65380694  0.35987416    -0.10700
C157        C  0.90562454  0.58651093  0.35960013    -0.14900
C158        C  0.93146056  0.57468524  0.34208068    -0.28800
C159        C  0.85275242  0.71208567  0.35486865    -0.03000
C160        C  0.82496034  0.72108249  0.33811334    -0.39600
H161        H  0.91371400  0.69451391  0.33801945     0.13200
H162        H  0.93650751  0.64109056  0.33818246     0.12800
H163        H  0.84390167  0.60391253  0.36830479     0.12300
H164        H  0.82104155  0.65714821  0.36696014     0.12500
H165        H  0.89448777  0.57247265  0.38162595     0.15300
H166        H  0.94186235  0.58704500  0.31829514     0.14000
H167        H  0.86700962  0.72910181  0.36956670     0.11700
H168        H  0.81214467  0.70393510  0.32185143     0.13700
C169        C  0.76305903  0.75267231  0.24553144     0.19800
C170        C  0.77177600  0.74178534  0.21031968    -0.18300
C171        C  0.74901174  0.73940004  0.18174347    -0.10600
C172        C  0.71678489  0.74818723  0.18748855     0.22100
C173        C  0.70791558  0.75909104  0.22264720    -0.19900
C174        C  0.73077826  0.76153581  0.25135393    -0.10700
C175        C  0.69191756  0.74534460  0.15767959    -0.14900
C176        C  0.69890882  0.74772575  0.12103068    -0.28800
C177        C  0.78850950  0.75343312  0.27500138    -0.03000
C178        C  0.78345331  0.75792679  0.31168988    -0.39600
H179        H  0.79632610  0.73453843  0.20500204     0.13200
H180        H  0.75668423  0.72994134  0.15549614     0.12800
H181        H  0.68323191  0.76593575  0.22783777     0.12300
H182        H  0.72288741  0.77038101  0.27777344     0.12500
H183        H  0.66703120  0.74240492  0.16596164     0.15300
H184        H  0.72343692  0.75294004  0.11302819     0.14000
H185        H  0.81294686  0.74812528  0.26640384     0.11700
H186        H  0.75948052  0.76313426  0.32157160     0.13700
C187        C  0.76025180  0.74505229  0.43160359     0.19800
C188        C  0.72695109  0.74206433  0.43641544    -0.18300
C189        C  0.71348792  0.74190586  0.47209117    -0.10600
C190        C  0.73321452  0.74375476  0.50383977     0.22100
C191        C  0.76657311  0.74682433  0.49916762    -0.19900
C192        C  0.77998210  0.74801368  0.46329651    -0.10700
C193        C  0.71541534  0.73422621  0.04084381    -0.14900
C194        C  0.68966930  0.75102012  0.05199153    -0.28800
C195        C  0.77370862  0.74178768  0.39358436    -0.03000
C196        C  0.79843109  0.75873705  0.37994221    -0.39600
H197        H  0.71133024  0.73937991  0.41243626     0.13200
H198        H  0.68780217  0.73886906  0.47496158     0.12800
H199        H  0.78226465  0.74789333  0.52332597     0.12300
H200        H  0.80580223  0.74971623  0.46044092     0.12500
H201        H  0.72670018  0.71736968  0.06017859     0.15300
H202        H  0.68146709  0.77158937  0.53379046     0.14000
H203        H  0.76174503  0.72555344  0.37531822     0.11700
H204        H  0.80954634  0.77608861  0.39744883     0.13700
C205        C  0.62693369  0.82403674  0.10453754     0.19800
C206        C  0.63127348  0.84879808  0.12907640    -0.18300
C207        C  0.60769031  0.87228675  0.13227052    -0.10600
C208        C  0.57955535  0.87173759  0.11028779     0.22100
C209        C  0.57523187  0.84681476  0.08590438    -0.19900
C210        C  0.59850310  0.82306369  0.08325223    -0.10700
C211        C  0.55601533  0.89826524  0.10886597    -0.14900
C212        C  0.55140468  0.91867660  0.13651642    -0.28800
C213        C  0.65308055  0.80052560  0.09982452    -0.03000
C214        C  0.64715965  0.76982477  0.09540649    -0.39600
H215        H  0.65313349  0.85012296  0.14551796     0.13200
H216        H  0.61225752  0.89149290  0.15066379     0.12800
H217        H  0.55401724  0.84605054  0.06827157     0.12300
H218        H  0.59479966  0.80460952  0.06350974     0.12500
H219        H  0.54199420  0.90133275  0.08330336     0.15300
H220        H  0.56342642  0.91519301  0.16327961     0.14000
H221        H  0.67779727  0.80839727  0.10138238     0.11700
H222        H  0.62236242  0.76208033  0.09669893     0.13700
C223        C  0.67646451  0.12812882  0.11343115     0.19800
C224        C  0.65620431  0.12593330  0.08201376    -0.18300
C225        C  0.62915946  0.10647303  0.08279719    -0.10600
C226        C  0.62193324  0.08855612  0.11512747     0.22100
C227        C  0.64259247  0.09028136  0.14613422    -0.19900
C228        C  0.66957971  0.10950674  0.14529923    -0.10700
C229        C  0.59281595  0.06860809  0.11892298    -0.14900
C230        C  0.57361346  0.05937062  0.09079701    -0.28800
C231        C  0.70450126  0.14978706  0.11174092    -0.03000
C232        C  0.71975515  0.16059673  0.14230801    -0.39600
H233        H  0.66099800  0.13977862  0.05694344     0.13200
H234        H  0.61377208  0.10612460  0.05839907     0.12800
H235        H  0.63785603  0.07657300  0.17133165     0.12300
H236        H  0.68497450  0.10925900  0.16968595     0.12500
H237        H  0.58719324  0.06048779  0.14710227     0.15300
H238        H  0.57870806  0.06596707  0.06205180     0.14000
H239        H  0.71217592  0.15740968  0.08416084     0.11700
H240        H  0.71192431  0.15242377  0.16953776     0.13700
C241        C  0.81829208  0.12100179  0.15557680     0.19800
C242        C  0.83662567  0.10165909  0.13235350    -0.18300
C243        C  0.86262003  0.08366446  0.14684883    -0.10600
C244        C  0.87053806  0.08454155  0.18507966     0.22100
C245        C  0.85173840  0.10337666  0.20816327    -0.19900
C246        C  0.82602153  0.12121636  0.19380540    -0.10700
C247        C  0.89733033  0.06611433  0.20318540    -0.14900
C248        C  0.92095219  0.05022801  0.18589509    -0.28800
C249        C  0.79043861  0.13957797  0.13985025    -0.03000
C250        C  0.77814424  0.16519559  0.15642030    -0.39600
H251        H  0.83088330  0.10056286  0.10290100     0.13200
H252        H  0.87607212  0.06902747  0.12818553     0.12800
H253        H  0.85686159  0.10424162  0.23779268     0.12300
H254        H  0.81187930  0.13451914  0.21317251     0.12500
H255        H  0.89795261  0.06633686  0.23350266     0.15300
H256        H  0.92177960  0.04925375  0.15572201     0.14000
H257        H  0.77971194  0.13209260  0.11386949     0.11700
H258        H  0.78998037  0.17375931  0.18117133     0.13700
C259        C  0.61873930  0.67471185  0.06312724     0.19800
C260        C  0.59833898  0.67043630  0.03236885    -0.18300
C261        C  0.58056651  0.64304510  0.02902289    -0.10600
C262        C  0.58281011  0.61881194  0.05633501     0.22100
C263        C  0.60269222  0.62319823  0.08759809    -0.19900
C264        C  0.62064590  0.65077444  0.09095706    -0.10700
C265        C  0.56391463  0.58936020  0.05301027    -0.14900
C266        C  0.55578810  0.57798876  0.01955437    -0.28800
C267        C  0.63616097  0.70507808  0.06498010    -0.03000
C268        C  0.65875225  0.71259921  0.09044220    -0.39600
H269        H  0.58533676  0.69962896  0.52563795     0.13200
H270        H  0.56458933  0.64128662  0.00525530     0.12800
H271        H  0.60451658  0.60513724  0.10933626     0.12300
H272        H  0.63553530  0.65322657  0.11549440     0.12500
H273        H  0.55706882  0.57663731  0.07832252     0.15300
H274        H  0.56434260  0.58965103  0.99431207     0.14000
H275        H  0.62982371  0.72284031  0.04380089     0.11700
H276        H  0.66649768  0.69550891  0.11164157     0.13700
C277        C  0.23344812  0.77158765  0.07280122     0.19800
C278        C  0.23991249  0.78034929  0.03557310    -0.18300
C279        C  0.23945291  0.75814816  0.00743057    -0.10600
C280        C  0.23216965  0.72660568  0.01592991     0.22100
C281        C  0.22498906  0.71801038  0.05297039    -0.19900
C282        C  0.22533178  0.74019930  0.08105501    -0.10700
C283        C  0.23427399  0.70156393  0.98783617    -0.14900
C284        C  0.22256666  0.70618699  0.44973549    -0.28800
C285        C  0.23520672  0.79588046  0.10192637    -0.03000
C286        C  0.23863896  0.78934109  0.13882160    -0.39600
H287        H  0.24608396  0.80436630  0.02834823     0.13200
H288        H  0.24587059  0.76564526  0.97943911     0.12800
H289        H  0.21924817  0.69390196  0.06027970     0.12300
H290        H  0.21908407  0.73253289  0.10901802     0.12500
H291        H  0.23812254  0.67763850  0.99828281     0.15300
H292        H  0.21612553  0.72952935  0.43934710     0.14000
H293        H  0.23475675  0.82035077  0.09259781     0.11700
H294        H  0.24057540  0.76510207  0.14859933     0.13700
C295        C  0.22766849  0.76472778  0.25951750     0.19800
C296        C  0.21424137  0.73509628  0.26657087    -0.18300
C297        C  0.21821372  0.71975225  0.30140215    -0.10600
C298        C  0.23531732  0.73403785  0.33038696     0.22100
C299        C  0.24830365  0.76391685  0.32338404    -0.19900
C300        C  0.24447697  0.77914767  0.28851496    -0.10700
C301        C  0.24060817  0.71880456  0.36804331    -0.14900
C302        C  0.22394116  0.69401998  0.38162716    -0.28800
C303        C  0.22335290  0.78006001  0.22190193    -0.03000
C304        C  0.24495307  0.79997399  0.20666822    -0.39600
H305        H  0.20110731  0.72348887  0.24477487     0.13200
H306        H  0.20824310  0.69658605  0.30502057     0.12800
H307        H  0.26138293  0.77566429  0.34511599     0.12300
H308        H  0.25434872  0.80237235  0.28458126     0.12500
H309        H  0.25825108  0.72930799  0.38627154     0.15300
H310        H  0.20558872  0.68357579  0.36445190     0.14000
H311        H  0.20263001  0.77353477  0.20531421     0.11700
H312        H  0.26645657  0.80524127  0.22259030     0.13700
C313        C  0.36326435  0.59475565  0.44214645     0.19800
C314        C  0.35707971  0.62509494  0.45468837    -0.18300
C315        C  0.32995178  0.64207156  0.44243419    -0.10600
C316        C  0.30757496  0.62873042  0.41792901     0.22100
C317        C  0.31441305  0.59871177  0.40428917    -0.19900
C318        C  0.34196503  0.58185642  0.41619970    -0.10700
C319        C  0.27620100  0.64436756  0.40770671    -0.14900
C320        C  0.26347492  0.66856586  0.42654802    -0.28800
C321        C  0.39077858  0.57683464  0.45911418    -0.03000
C322        C  0.40689621  0.55341768  0.44263074    -0.39600
H323        H  0.38180472  0.63138201  0.97809179     0.13200
H324        H  0.32679415  0.66544514  0.45279359     0.12800
H325        H  0.29781112  0.58779625  0.38530369     0.12300
H326        H  0.34575790  0.55834284  0.40629686     0.12500
H327        H  0.26157451  0.63377638  0.38628178     0.15300
H328        H  0.27748353  0.67904488  0.44841260     0.14000
H329        H  0.40879010  0.58016610  0.98594288     0.11700
H330        H  0.40082301  0.54679343  0.41443225     0.13700
C331        C  0.10439366  0.58284281  0.42831537     0.19800
C332        C  0.13466157  0.57895890  0.41185906    -0.18300
C333        C  0.15762480  0.60255462  0.41324313    -0.10600
C334        C  0.15076278  0.63085312  0.43094287     0.22100
C335        C  0.12074057  0.63463378  0.44809359    -0.19900
C336        C  0.09779731  0.61074268  0.44712946    -0.10700
C337        C  0.17340251  0.65757035  0.42865692    -0.14900
C338        C  0.20559566  0.65353445  0.42808514    -0.28800
C339        C  0.07947593  0.55904120  0.42074581    -0.03000
C340        C  0.05207265  0.55481156  0.44005405    -0.39600
H341        H  0.14022247  0.55791256  0.39673635     0.13200
H342        H  0.18012990  0.59916425  0.39883261     0.12800
H343        H  0.11479449  0.65639141  0.46154720     0.12300
H344        H  0.07450350  0.61486526  0.45941891     0.12500
H345        H  0.16336736  0.68120544  0.42693015     0.15300
H346        H  0.21540907  0.62999420  0.43248917     0.14000
H347        H  0.08379512  0.54440484  0.39683592     0.11700
H348        H  0.04752211  0.56739903  0.46544634     0.13700
C349        C  0.73885755  0.23280963  0.04889235     0.19800
C350        C  0.71220045  0.24660895  0.03038951    -0.18300
C351        C  0.71592049  0.26373834  0.99696299    -0.10600
C352        C  0.74654953  0.26754754  0.98124870     0.22100
C353        C  0.77325641  0.25391070  0.99970969    -0.19900
C354        C  0.76953035  0.23658341  0.03308088    -0.10700
C355        C  0.75153368  0.28748037  0.94722998    -0.14900
C356        C  0.71950234  0.29216246  0.42264566    -0.28800
C357        C  0.73352590  0.21641429  0.08546668    -0.03000
C358        C  0.75520294  0.19759332  0.10348895    -0.39600
H359        H  0.68836632  0.24449076  0.04212550     0.13200
H360        H  0.69491050  0.27478835  0.98416312     0.12800
H361        H  0.79714861  0.25692597  0.98842298     0.12300
H362        H  0.79087610  0.22711019  0.04669153     0.12500
H363        H  0.76777793  0.29500188  0.44084025     0.15300
H364        H  0.69708373  0.27979354  0.42715660     0.14000
H365        H  0.71028319  0.21990956  0.09851498     0.11700
H366        H  0.77833019  0.19289460  0.09091569     0.13700
C367        C  0.72945515  0.23123437  0.23209232     0.19800
C368        C  0.70896791  0.22600059  0.26251601    -0.18300
C369        C  0.70527646  0.24855425  0.28992169    -0.10600
C370        C  0.72254621  0.27675751  0.28794684     0.22100
C371        C  0.74239156  0.28241758  0.25696712    -0.19900
C372        C  0.74595731  0.25986355  0.22936828    -0.10700
C373        C  0.72106178  0.30007386  0.31831211    -0.14900
C374        C  0.71797396  0.29122221  0.35457168    -0.28800
C375        C  0.73472527  0.20545468  0.20540640    -0.03000
C376        C  0.74156723  0.21015526  0.16889294    -0.39600
H377        H  0.69588698  0.20422582  0.26521067     0.13200
H378        H  0.68900748  0.24373885  0.31274030     0.12800
H379        H  0.75598781  0.30391269  0.25474842     0.12300
H380        H  0.76247598  0.26442422  0.20672462     0.12500
H381        H  0.72564089  0.32454772  0.31122415     0.15300
H382        H  0.71554161  0.26630158  0.36105886     0.14000
H383        H  0.73255332  0.18159245  0.21635148     0.11700
H384        H  0.74268021  0.23417860  0.15811450     0.13700
C385        C  0.64437554  0.36412225  0.41581671     0.19800
C386        C  0.62185419  0.36006622  0.44449480    -0.18300
C387        C  0.59702225  0.38178139  0.44930335    -0.10600
C388        C  0.59416728  0.40854234  0.42576550     0.22100
C389        C  0.61565162  0.41199891  0.39585702    -0.19900
C390        C  0.64073342  0.39010451  0.39099601    -0.10700
C391        C  0.56931622  0.43312611  0.43279051    -0.14900
C392        C  0.56074608  0.44015061  0.46780287    -0.28800
C393        C  0.67203194  0.34162295  0.41516190    -0.03000
C394        C  0.69200172  0.33684841  0.38604919    -0.39600
H395        H  0.62205798  0.32869885  0.94333225     0.13200
H396        H  0.58019554  0.37766389  0.47176331     0.12800
H397        H  0.61374897  0.43226353  0.37709471     0.12300
H398        H  0.65769471  0.39424984  0.36873577     0.12500
H399        H  0.55905486  0.44640420  0.40926090     0.15300
H400        H  0.57287041  0.42838267  0.49123645     0.14000
H401        H  0.67582633  0.32829706  0.44098207     0.11700
H402        H  0.68846958  0.35058341  0.36042778     0.13700
C403        C  0.84700813  0.40854872  0.39871373     0.19800
C404        C  0.83001827  0.39942441  0.36681024    -0.18300
C405        C  0.80192212  0.38185700  0.36988732    -0.10600
C406        C  0.79004876  0.37280251  0.40510140     0.22100
C407        C  0.80647010  0.38245760  0.43711376    -0.19900
C408        C  0.83481115  0.39990106  0.43406369    -0.10700
C409        C  0.76022211  0.35401474  0.40901688    -0.14900
C410        C  0.75171902  0.33209322  0.38434735    -0.28800
C411        C  0.87735977  0.42649021  0.39319587    -0.03000
C412        C  0.89458734  0.44009057  0.42033319    -0.39600
H413        H  0.83853736  0.40591765  0.33921243     0.13200
H414        H  0.78933350  0.37572717  0.34462001     0.12800
H415        H  0.79764640  0.37598197  0.46458155     0.12300
H416        H  0.84704593  0.40611639  0.45944992     0.12500
H417        H  0.74538947  0.35742858  0.43345296     0.15300
H418        H  0.76769566  0.32749872  0.36122579     0.14000
H419        H  0.88580561  0.42900768  0.36465180     0.11700
H420        H  0.88693151  0.43885608  0.44914508     0.13700
C421        C  0.23056698  0.24283114  0.25544556     0.19800
C422        C  0.26376270  0.24340013  0.24885063    -0.18300
C423        C  0.27553271  0.24573607  0.21222503    -0.10600
C424        C  0.25429449  0.24649432  0.18139970     0.22100
C425        C  0.22112026  0.24544343  0.18808257    -0.19900
C426        C  0.20935521  0.24414457  0.22468439    -0.10700
C427        C  0.26642985  0.24570859  0.14230755    -0.14900
C428        C  0.29191772  0.26259705  0.13087442    -0.28800
C429        C  0.21790482  0.23786716  0.29393860    -0.03000
C430        C  0.19444248  0.25642681  0.30733284    -0.39600
H431        H  0.28056789  0.24184751  0.27203939     0.13200
H432        H  0.30127608  0.24568318  0.20796200     0.12800
H433        H  0.20428333  0.24549119  0.16490508     0.12300
H434        H  0.18364335  0.24298990  0.22898993     0.12500
H435        H  0.25454779  0.23040653  0.12296587     0.15300
H436        H  0.30229882  0.27873064  0.15053158     0.14000
H437        H  0.22544484  0.21692039  0.30965459     0.11700
H438        H  0.18831376  0.27761492  0.29112321     0.13700
C439        C  0.25452317  0.25014414  0.50236384     0.19800
C440        C  0.23011105  0.22945029  0.49182656    -0.18300
C441        C  0.21782959  0.22968998  0.45516395    -0.10600
C442        C  0.22962283  0.25076769  0.42770069     0.22100
C443        C  0.25426390  0.27118689  0.43801857    -0.19900
C444        C  0.26649877  0.27102280  0.47467788    -0.10700
C445        C  0.21734154  0.25184010  0.38809700    -0.14900
C446        C  0.18745686  0.24273638  0.37826714    -0.28800
C447        C  0.26729793  0.24488816  0.04337041    -0.03000
C448        C  0.28761398  0.26546425  0.05915151    -0.39600
H449        H  0.22066939  0.21266681  0.51202172     0.13200
H450        H  0.19957493  0.21284531  0.44836759     0.12800
H451        H  0.26412689  0.28749173  0.41755240     0.12300
H452        H  0.28572828  0.28698748  0.48057700     0.12500
H453        H  0.23259895  0.26253814  0.36700021     0.15300
H454        H  0.17145166  0.23484358  0.40028318     0.14000
H455        H  0.26208064  0.22307441  0.05828835     0.11700
H456        H  0.29745243  0.28726646  0.53926236     0.13700
C457        C  0.40531220  0.38113204  0.06192520     0.19800
C458        C  0.40664897  0.35071084  0.04787042    -0.18300
C459        C  0.38446726  0.32801688  0.05901079    -0.10600
C460        C  0.36007588  0.33523546  0.08446335     0.22100
C461        C  0.35891628  0.36557133  0.09901083    -0.19900
C462        C  0.38146224  0.38829068  0.08812289    -0.10700
C463        C  0.33384321  0.31267377  0.09310064    -0.14900
C464        C  0.33747470  0.28119048  0.09117317    -0.28800
C465        C  0.42699372  0.40515701  0.04524066    -0.03000
C466        C  0.43593593  0.43201756  0.06130570    -0.39600
H467        H  0.42447863  0.34468077  0.02727997     0.13200
H468        H  0.38562803  0.30535199  0.04614874     0.12800
H469        H  0.34008162  0.37189638  0.11822717     0.12300
H470        H  0.37923985  0.41169270  0.09889480     0.12500
H471        H  0.31038343  0.32228736  0.09996337     0.15300
H472        H  0.36135964  0.27163069  0.08633475     0.14000
H473        H  0.43642961  0.40010901  0.01779093     0.11700
H474        H  0.42867795  0.43714191  0.08955132     0.13700
C475        C  0.39645817  0.12550449  0.11773535     0.19800
C476        C  0.38076148  0.13712559  0.08533624    -0.18300
C477        C  0.36309026  0.16518023  0.08544587    -0.10600
C478        C  0.36040138  0.18239697  0.11826325     0.22100
C479        C  0.37577150  0.17062388  0.15084418    -0.19900
C480        C  0.39355404  0.14249672  0.15071794    -0.10700
C481        C  0.34363909  0.21349338  0.11926154    -0.14900
C482        C  0.32337479  0.22500883  0.09245726    -0.28800
C483        C  0.41640016  0.09641586  0.11472677    -0.03000
C484        C  0.43297226  0.08173252  0.14272881    -0.39600
H485        H  0.38267762  0.12471742  0.05942021     0.13200
H486        H  0.35251541  0.17351178  0.05939367     0.12800
H487        H  0.37432977  0.18346574  0.17648426     0.12300
H488        H  0.40526331  0.13465640  0.17632385     0.12500
H489        H  0.34854297  0.22799611  0.14310994     0.15300
H490        H  0.31737351  0.21062718  0.06900217     0.14000
H491        H  0.41787712  0.08666161  0.08704886     0.11700
H492        H  0.43197784  0.08992069  0.17106134     0.13700
C493        C  0.30875723  0.26030194  0.59268110    -0.01400
C494        C  0.73132883  0.31263037  0.88542245    -0.01400
C495        C  0.23845391  0.68033123  0.92309709    -0.01400
O496        O  0.52290055  0.47000654  0.94536005    -0.56300
C497        C  0.44156020  0.53208135  0.95935800     0.75900
O498        O  0.46002781  0.48693647  0.56107905    -0.57900
C499        C  0.54106227  0.45459973  0.96795761     0.75900
C500        C  0.52596590  0.56033695  0.51876924     0.78300
Cd501      Cd  0.48665441  0.50636506  0.50200576     1.37500
O502        O  0.45854691  0.51259251  0.94170820    -0.56700
O503        O  0.52942049  0.54178533  0.98107135    -0.55500
C504        C  0.44891236  0.46246596  0.54634479     0.78300
O505        O  0.51682270  0.54210702  0.54513951    -0.57900
O506        O  0.43929990  0.54054554  0.49657782    -0.56300
O507        O  0.53200670  0.47056920  0.51113042    -0.56300
O508        O  0.45995099  0.45292803  0.00563295    -0.55500
C509        C  0.74934278  0.17945377  0.64061635    -0.01400
C510        C  0.67688678  0.74794350  0.59080230    -0.01400
C511        C  0.81131364  0.75393083  0.84317023    -0.01400
O512        O  0.96859816  0.01656941  0.70105512    -0.56700
C513        C  0.05239841  0.96311222  0.74346326     0.75900
O514        O  0.01456865  0.03338470  0.81442811    -0.57900
C515        C  0.94969514  0.03613766  0.71590750     0.75900
C516        C  0.95537373  0.95481649  0.79605475     0.78300
Cd517      Cd  0.99690436  0.00149418  0.76107702     1.37500
O518        O  0.03585783  0.97575109  0.71707430    -0.56700
O519        O  0.96397731  0.95357576  0.76232325    -0.55500
C520        C  0.03207423  0.05174395  0.79518876     0.78300
O521        O  0.96588807  0.97776943  0.81417961    -0.57900
O522        O  0.04305453  0.96819837  0.77622849    -0.56300
O523        O  0.95347128  0.04005988  0.75050555    -0.56300
O524        O  0.03283308  0.04720273  0.76041022    -0.55500
C525        C  0.24287933  0.81377002  0.66688848    -0.01400
O526        O  0.53897236  0.03168204  0.63248933    -0.56700
C527        C  0.43620403  0.96562560  0.60718917     0.75900
O528        O  0.46059630  0.04812742  0.60228121    -0.57900
C529        C  0.54735921  0.03752507  0.59898374     0.75900
C530        C  0.53207545  0.94858305  0.63182876     0.78300
Cd531      Cd  0.49212260  0.00220708  0.61831530     1.37500
O532        O  0.44860586  0.96961604  0.63925679    -0.56700
O533        O  0.52322021  0.96535039  0.65905783    -0.55500
C534        C  0.45542587  0.05675253  0.63544102     0.78300
O535        O  0.52171317  0.95656439  0.59943433    -0.57900
O536        O  0.45005255  0.97866780  0.57921141    -0.56300
O537        O  0.52937971  0.02716676  0.57308385    -0.56300
O538        O  0.46768075  0.03981850  0.66193211    -0.55500
C539        C  0.17246005  0.25272579  0.84014437    -0.01400
O540        O  0.01018818  0.52791332  0.95094848    -0.56700
C541        C  0.93119848  0.45914414  0.92148266     0.75900
O542        O  0.96941972  0.53013150  0.84353607    -0.57900
C543        C  0.03290843  0.53764637  0.93016250     0.75900
C544        C  0.02887939  0.44728323  0.88545980     0.78300
Cd545      Cd  0.98479205  0.49736486  0.89973373     1.37500
O546        O  0.94647414  0.47424274  0.94603075    -0.56700
O547        O  0.02036907  0.45476292  0.91792007    -0.55500
C548        C  0.94908966  0.54646637  0.86121720     0.78300
O549        O  0.01599753  0.46248337  0.85806896    -0.57900
O550        O  0.94144560  0.46142653  0.88828017    -0.56300
O551        O  0.03269590  0.52871271  0.89676627    -0.56300
O552        O  0.94496851  0.53916436  0.89528788    -0.55500
C553        C  0.13284691  0.33594600  0.84696317     0.19800
C554        C  0.13701525  0.36106338  0.87095184    -0.18300
C555        C  0.11468719  0.38580589  0.87116137    -0.10600
C556        C  0.08792504  0.38613255  0.84691097     0.22100
C557        C  0.08472968  0.36195156  0.82141509    -0.19900
C558        C  0.10682960  0.33693574  0.82157524    -0.10700
C559        C  0.06288804  0.41117385  0.84845939    -0.14900
C560        C  0.05333825  0.42237590  0.88130326    -0.28800
C561        C  0.15636731  0.30945309  0.84845942    -0.03000
C562        C  0.14820175  0.27981120  0.84063856    -0.39600
H563        H  0.15722434  0.36119276  0.89016039     0.13200
H564        H  0.11835107  0.40467578  0.89034557     0.12800
H565        H  0.06463210  0.36199516  0.80204758     0.12300
H566        H  0.10360814  0.31855422  0.80165852     0.12500
H567        H  0.05100411  0.41913286  0.82279863     0.15300
H568        H  0.06386840  0.41266264  0.90695644     0.14000
H569        H  0.18088539  0.31419476  0.85713188     0.11700
H570        H  0.12319815  0.27503782  0.83405529     0.13700
C571        C  0.36597914  0.91004360  0.63102662     0.19800
C572        C  0.36396755  0.88331832  0.65449526    -0.18300
C573        C  0.33513270  0.86709698  0.65830110    -0.10600
C574        C  0.30732118  0.87727555  0.63872667     0.22100
C575        C  0.30926002  0.90412262  0.61525112    -0.19900
C576        C  0.33835160  0.92025855  0.61117051    -0.10700
C577        C  0.27573015  0.86161833  0.64452612    -0.14900
C578        C  0.27350196  0.83117292  0.65556001    -0.28800
C579        C  0.39633140  0.92817163  0.63125361    -0.03000
C580        C  0.40660355  0.94692849  0.60302469    -0.39600
H581        H  0.38471996  0.87527967  0.67061993     0.13200
H582        H  0.33454039  0.84733558  0.67780408     0.12800
H583        H  0.28811571  0.91282921  0.60036713     0.12300
H584        H  0.33882288  0.94130322  0.59365619     0.12500
H585        H  0.25411142  0.87560401  0.63965914     0.15300
H586        H  0.29536510  0.81701189  0.65676744     0.14000
H587        H  0.41130346  0.92551411  0.65613651     0.11700
H588        H  0.39337834  0.94855120  0.57683365     0.13700
C589        C  0.12949490  0.17086436  0.83365074     0.19800
C590        C  0.11275214  0.15158264  0.85903199    -0.18300
C591        C  0.09329627  0.12726609  0.84648296    -0.10600
C592        C  0.09044114  0.12146440  0.80804831     0.22100
C593        C  0.10791162  0.14035111  0.78284654    -0.19900
C594        C  0.12721690  0.16465742  0.79538476    -0.10700
C595        C  0.07023589  0.09594445  0.79262012    -0.14900
C596        C  0.05078529  0.07693398  0.81273626    -0.28800
C597        C  0.14934877  0.19699415  0.84782267    -0.03000
C598        C  0.15364283  0.22393095  0.82786928    -0.39600
H599        H  0.11437839  0.15563348  0.88869194     0.13200
H600        H  0.08081373  0.11322692  0.86714162     0.12800
H601        H  0.10666423  0.13628147  0.75316864     0.12300
H602        H  0.14064851  0.17823926  0.77502007     0.12500
H603        H  0.07147734  0.09264875  0.76269618     0.15300
H604        H  0.04843275  0.07934003  0.84257858     0.14000
H605        H  0.15909075  0.19433616  0.87586675     0.11700
H606        H  0.14216344  0.22631308  0.80060120     0.13700
C607        C  0.17948312  0.87854861  0.69332872     0.19800
C608        C  0.17459120  0.89580297  0.72563772    -0.18300
C609        C  0.14717112  0.91467793  0.72948288    -0.10600
C610        C  0.12366488  0.91677667  0.70100447     0.22100
C611        C  0.12905613  0.90037430  0.66808612    -0.19900
C612        C  0.15658165  0.88142675  0.66422757    -0.10700
C613        C  0.09381598  0.93633865  0.70462232    -0.14900
C614        C  0.08141385  0.94344025  0.73801264    -0.28800
C615        C  0.20910751  0.85861660  0.69103436    -0.03000
C616        C  0.21262229  0.83462987  0.66751672    -0.39600
H617        H  0.19205866  0.89459091  0.74819111     0.13200
H618        H  0.14487952  0.92792752  0.75466152     0.12800
H619        H  0.11176933  0.90201702  0.64537471     0.12300
H620        H  0.15989439  0.86950629  0.63825264     0.12500
H621        H  0.08129650  0.94426789  0.67935664     0.15300
H622        H  0.09273166  0.93414345  0.76334167     0.14000
H623        H  0.22858074  0.86308309  0.71049004     0.11700
H624        H  0.19278548  0.82881757  0.64925119     0.13700
C625        C  0.90289830  0.88035156  0.80943490     0.19800
C626        C  0.90155376  0.85190515  0.79052105    -0.18300
C627        C  0.88005502  0.82837971  0.80132748    -0.10600
C628        C  0.85902735  0.83272826  0.83134887     0.22100
C629        C  0.86034012  0.86110154  0.85045655    -0.19900
C630        C  0.88215348  0.88460645  0.83985895    -0.10700
C631        C  0.83399957  0.80911423  0.84126084    -0.14900
C632        C  0.83797567  0.77798098  0.83636944    -0.28800
C633        C  0.92480432  0.90530488  0.79472785    -0.03000
C634        C  0.93403169  0.93087283  0.81337558    -0.39600
H635        H  0.91691670  0.84801385  0.76676057     0.13200
H636        H  0.87916234  0.80730515  0.78516337     0.12800
H637        H  0.84415879  0.86523282  0.87340966     0.12300
H638        H  0.88185278  0.90632498  0.85478815     0.12500
H639        H  0.81161980  0.81755566  0.85303605     0.15300
H640        H  0.86102053  0.76952518  0.82643964     0.14000
H641        H  0.93421098  0.90214177  0.76683496     0.11700
H642        H  0.92629070  0.93434254  0.84180917     0.13700
C643        C  0.86440065  0.67760457  0.85104389     0.19800
C644        C  0.89783255  0.67291670  0.85095592    -0.18300
C645        C  0.91100062  0.64258882  0.85017204    -0.10600
C646        C  0.89089932  0.61629919  0.85052413     0.22100
C647        C  0.85743974  0.62097842  0.84979707    -0.19900
C648        C  0.84425368  0.65137755  0.84946900    -0.10700
C649        C  0.90429178  0.58440893  0.85833387    -0.14900
C650        C  0.93217946  0.57395134  0.84410375    -0.28800
C651        C  0.85128045  0.70975129  0.85599787    -0.03000
C652        C  0.82454971  0.72058221  0.83837905    -0.39600
H653        H  0.91379671  0.69277273  0.85238813     0.13200
H654        H  0.93686401  0.63966490  0.85172078     0.12800
H655        H  0.84150574  0.60104011  0.85074372     0.12300
H656        H  0.81837766  0.65425538  0.85014616     0.12500
H657        H  0.89173113  0.56981423  0.87870558     0.15300
H658        H  0.94394010  0.58712490  0.82184764     0.14000
H659        H  0.86482752  0.72548543  0.87339053     0.11700
H660        H  0.81219647  0.70512288  0.81947456     0.13700
C661        C  0.76479885  0.75578996  0.74763515     0.19800
C662        C  0.77467419  0.74805197  0.71160417    -0.18300
C663        C  0.75237334  0.74488968  0.68269305    -0.10600
C664        C  0.71937128  0.74980925  0.68886960     0.22100
C665        C  0.70931919  0.75740639  0.72491130    -0.19900
C666        C  0.73171241  0.76051031  0.75400742    -0.10700
C667        C  0.69495191  0.74648289  0.65859232    -0.14900
C668        C  0.70191680  0.75029589  0.62203941    -0.28800
C669        C  0.78996222  0.75671571  0.77745205    -0.03000
C670        C  0.78450326  0.75997532  0.81426596    -0.39600
H671        H  0.79985753  0.74378844  0.70586030     0.13200
H672        H  0.76117851  0.73785545  0.65582278     0.12800
H673        H  0.68402663  0.76108472  0.73054476     0.12300
H674        H  0.72277809  0.76637904  0.78119708     0.12500
H675        H  0.67022292  0.74199035  0.66652039     0.15300
H676        H  0.72612793  0.75685715  0.61425411     0.14000
H677        H  0.81455372  0.75190760  0.76902712     0.11700
H678        H  0.76047914  0.76517666  0.82397579     0.13700
C679        C  0.75821176  0.74069626  0.93184497     0.19800
C680        C  0.72464203  0.74019505  0.93564638    -0.18300
C681        C  0.71055214  0.73949194  0.97102632    -0.10600
C682        C  0.72986393  0.73825501  0.00331061     0.22100
C683        C  0.76345421  0.73834271  0.99956133    -0.19900
C684        C  0.77755226  0.74008613  0.96413905    -0.10700
C685        C  0.71954221  0.73933845  0.54175997    -0.14900
C686        C  0.69265984  0.75441299  0.55285091    -0.28800
C687        C  0.77230942  0.73921340  0.89398812    -0.03000
C688        C  0.79803221  0.75601636  0.88280533    -0.39600
H689        H  0.70929306  0.74019491  0.91111575     0.13200
H690        H  0.68461580  0.73870484  0.97315661     0.12800
H691        H  0.77877587  0.73692763  0.02410738     0.12300
H692        H  0.80349950  0.73972572  0.96196594     0.12500
H693        H  0.73205504  0.72335670  0.56110768     0.15300
H694        H  0.67961299  0.76897675  0.03309876     0.14000
H695        H  0.76005445  0.72479294  0.87388793     0.11700
H696        H  0.80936457  0.77161779  0.90235187     0.13700
C697        C  0.62962126  0.82673227  0.60505134     0.19800
C698        C  0.63610092  0.85419835  0.62446345    -0.18300
C699        C  0.61244703  0.87759420  0.62797087    -0.10600
C700        C  0.58198165  0.87418128  0.61142393     0.22100
C701        C  0.57555237  0.84675242  0.59196263    -0.19900
C702        C  0.59896324  0.82315850  0.58902051    -0.10700
C703        C  0.55774480  0.90006010  0.61029135    -0.14900
C704        C  0.55423724  0.92139522  0.63713333    -0.28800
C705        C  0.65574664  0.80313067  0.59997852    -0.03000
C706        C  0.65014759  0.77219032  0.59695805    -0.39600
H707        H  0.65964869  0.85767698  0.63665430     0.13200
H708        H  0.61847993  0.89883276  0.64225525     0.12800
H709        H  0.55246241  0.84381465  0.57841316     0.12300
H710        H  0.59337581  0.80274273  0.57294595     0.12500
H711        H  0.54199818  0.90156537  0.58596839     0.15300
H712        H  0.56805905  0.91921079  0.66287975     0.14000
H713        H  0.68041408  0.81126556  0.59965272     0.11700
H714        H  0.62562459  0.76399589  0.59984900     0.13700
C715        C  0.68419208  0.11756533  0.61440976     0.19800
C716        C  0.66898407  0.10924150  0.58100704    -0.18300
C717        C  0.64023562  0.09218962  0.58162327    -0.10600
C718        C  0.62636386  0.08288030  0.61586431     0.22100
C719        C  0.64217256  0.09059038  0.64908138    -0.19900
C720        C  0.67069208  0.10749217  0.64844236    -0.10700
C721        C  0.59579524  0.06507615  0.61925463    -0.14900
C722        C  0.57701253  0.05547468  0.59095392    -0.28800
C723        C  0.71389408  0.13687442  0.61342014    -0.03000
C724        C  0.72055242  0.15737738  0.64042322    -0.39600
H725        H  0.67904904  0.11646784  0.55439836     0.13200
H726        H  0.62909899  0.08659982  0.55533820     0.12800
H727        H  0.63241189  0.08346392  0.67589766     0.12300
H728        H  0.68224674  0.11235276  0.67477141     0.12500
H729        H  0.58824724  0.05939832  0.64758797     0.15300
H730        H  0.58323936  0.06032784  0.56209618     0.14000
H731        H  0.72949219  0.13561340  0.58931470     0.11700
H732        H  0.70316930  0.15995492  0.66267737     0.13700
C733        C  0.81793707  0.11832784  0.66811869     0.19800
C734        C  0.82763940  0.08872023  0.65573060    -0.18300
C735        C  0.85703385  0.07523610  0.66754578    -0.10600
C736        C  0.87704505  0.09092104  0.69266222     0.22100
C737        C  0.86723336  0.12050764  0.70502528    -0.19900
C738        C  0.83817832  0.13416176  0.69277723    -0.10700
C739        C  0.90632053  0.07593649  0.70980627    -0.14900
C740        C  0.92372430  0.05272971  0.69448430    -0.28800
C741        C  0.78595356  0.13159817  0.65674003    -0.03000
C742        C  0.78126666  0.16269292  0.65060503    -0.39600
H743        H  0.81230612  0.07589987  0.63707206     0.13200
H744        H  0.86331426  0.05204903  0.65818961     0.12800
H745        H  0.88186674  0.13289054  0.72484223     0.12300
H746        H  0.83107461  0.15662821  0.70369298     0.12500
H747        H  0.91357874  0.08422484  0.73700516     0.15300
H748        H  0.91830968  0.04508669  0.66650827     0.14000
H749        H  0.76645699  0.11531278  0.65280953     0.11700
H750        H  0.80212122  0.17778797  0.65218693     0.13700
C751        C  0.61972732  0.67875086  0.56471096     0.19800
C752        C  0.59230453  0.67871975  0.54164761    -0.18300
C753        C  0.57329126  0.65204204  0.53898946    -0.10600
C754        C  0.58133360  0.62425566  0.55907206     0.22100
C755        C  0.60841221  0.62430388  0.58279956    -0.19900
C756        C  0.62757320  0.65118807  0.58550345    -0.10700
C757        C  0.56160176  0.59527802  0.55579693    -0.14900
C758        C  0.54559782  0.58868963  0.52416161    -0.28800
C759        C  0.63876303  0.70825751  0.56563478    -0.03000
C760        C  0.66203489  0.71512978  0.59060959    -0.39600
H761        H  0.59589315  0.68856873  0.01076827     0.13200
H762        H  0.55203550  0.65346831  0.52145486     0.12800
H763        H  0.61505936  0.60331227  0.59881218     0.12300
H764        H  0.64852417  0.65005236  0.60348883     0.12500
H765        H  0.56140351  0.57846513  0.57908432     0.15300
H766        H  0.54787976  0.60424547  0.49989935     0.14000
H767        H  0.63197910  0.72654721  0.54529266     0.11700
H768        H  0.66951453  0.69784613  0.61172385     0.13700
C769        C  0.22878014  0.76939530  0.57344722     0.19800
C770        C  0.22826427  0.77920709  0.53572745    -0.18300
C771        C  0.22641572  0.75741728  0.50724075    -0.10600
C772        C  0.22473542  0.72505737  0.51583623     0.22100
C773        C  0.22439507  0.71529856  0.55354847    -0.19900
C774        C  0.22622185  0.73708506  0.58203436    -0.10700
C775        C  0.22578836  0.70056673  0.48685039    -0.14900
C776        C  0.23240907  0.70666907  0.95055947    -0.28800
C777        C  0.23239626  0.79370978  0.60242750    -0.03000
C778        C  0.23811839  0.78760970  0.63907179    -0.39600
H779        H  0.23005673  0.80389654  0.52816713     0.13200
H780        H  0.22734496  0.76619278  0.47874482     0.12800
H781        H  0.22311812  0.69056412  0.56107565     0.12300
H782        H  0.22572809  0.72822620  0.61050120     0.12500
H783        H  0.23091070  0.67659996  0.49637922     0.15300
H784        H  0.22687133  0.73008835  0.93958976     0.14000
H785        H  0.23122480  0.81815192  0.59302186     0.11700
H786        H  0.24020643  0.76355287  0.64935717     0.13700
C787        C  0.23465001  0.76415018  0.76070596     0.19800
C788        C  0.21549671  0.73861748  0.77159471    -0.18300
C789        C  0.22046046  0.72281543  0.80596456    -0.10600
C790        C  0.24482498  0.73226621  0.83069065     0.22100
C791        C  0.26390294  0.75790270  0.81980403    -0.19900
C792        C  0.25889511  0.77372522  0.78545647    -0.10700
C793        C  0.25060543  0.71719952  0.86845366    -0.14900
C794        C  0.23380272  0.69284190  0.88294551    -0.28800
C795        C  0.22813591  0.78015693  0.72370508    -0.03000
C796        C  0.24911518  0.79920519  0.70587836    -0.39600
H797        H  0.19653740  0.73074830  0.75332051     0.13200
H798        H  0.20483131  0.70348237  0.81272434     0.12800
H799        H  0.28262409  0.76604976  0.83821936     0.12300
H800        H  0.27375876  0.79374685  0.77902080     0.12500
H801        H  0.26900150  0.72737369  0.88594645     0.15300
H802        H  0.21558424  0.68184790  0.86616740     0.14000
H803        H  0.20568516  0.77494942  0.70959846     0.11700
H804        H  0.27206816  0.80381782  0.71904925     0.13700
C805        C  0.37170275  0.59179685  0.94354230     0.19800
C806        C  0.36557385  0.62160636  0.95778791    -0.18300
C807        C  0.33844166  0.63909821  0.94646880    -0.10600
C808        C  0.31615985  0.62687899  0.92097892     0.22100
C809        C  0.32278799  0.59731830  0.90599920    -0.19900
C810        C  0.35018523  0.57992211  0.91710940    -0.10700
C811        C  0.28508674  0.64310031  0.91075324    -0.14900
C812        C  0.27284789  0.66786668  0.92896081    -0.28800
C813        C  0.39955824  0.57331047  0.95893164    -0.03000
C814        C  0.41437760  0.54958728  0.94146423    -0.39600
H815        H  0.37324820  0.63568275  0.47444897     0.13200
H816        H  0.33523858  0.66194885  0.95825999     0.12800
H817        H  0.30619174  0.58719274  0.88637314     0.12300
H818        H  0.35373284  0.55680601  0.90596469     0.12500
H819        H  0.27024310  0.63261519  0.88945262     0.15300
H820        H  0.28701577  0.67856404  0.95053324     0.14000
H821        H  0.39881451  0.58411629  0.48646334     0.11700
H822        H  0.40700891  0.54321229  0.91360295     0.13700
C823        C  0.11124300  0.58540576  0.93130999     0.19800
C824        C  0.14258184  0.57911448  0.91905651    -0.18300
C825        C  0.16627540  0.60209800  0.92015405    -0.10600
C826        C  0.15903765  0.63219563  0.93316796     0.22100
C827        C  0.12783926  0.63834792  0.94612986    -0.19900
C828        C  0.10419451  0.61511952  0.94554575    -0.10700
C829        C  0.18249888  0.65826983  0.92999099    -0.14900
C830        C  0.21466441  0.65375821  0.93063200    -0.28800
C831        C  0.08585880  0.56201907  0.92395907    -0.03000
C832        C  0.05832586  0.55890963  0.94333432    -0.39600
H833        H  0.14849975  0.55657533  0.90742951     0.13200
H834        H  0.18969983  0.59666579  0.90892785     0.12800
H835        H  0.12153661  0.66144962  0.95586604     0.12300
H836        H  0.08008687  0.62100270  0.95434314     0.12500
H837        H  0.17302974  0.68202437  0.92641035     0.15300
H838        H  0.22412434  0.63032037  0.93668593     0.14000
H839        H  0.09004971  0.54664892  0.90068454     0.11700
H840        H  0.05423585  0.57226197  0.96827678     0.13700
C841        C  0.73457417  0.22985366  0.54819518     0.19800
C842        C  0.70806658  0.24668241  0.53326423    -0.18300
C843        C  0.71070194  0.26453413  0.50015802    -0.10600
C844        C  0.74003199  0.26592720  0.48090026     0.22100
C845        C  0.76654616  0.24908055  0.49555911    -0.19900
C846        C  0.76391513  0.23109309  0.52863559    -0.10700
C847        C  0.74399006  0.28601441  0.44666831    -0.14900
C848        C  0.72910395  0.29086084  0.92002475    -0.28800
C849        C  0.73047055  0.21252164  0.58466513    -0.03000
C850        C  0.75376817  0.19553554  0.60240226    -0.39600
H851        H  0.68524203  0.24647286  0.54763724     0.13200
H852        H  0.68994328  0.27793517  0.49036108     0.12800
H853        H  0.78945547  0.24991352  0.48139271     0.12300
H854        H  0.78519878  0.21879452  0.53861272     0.12500
H855        H  0.77454765  0.29897877  0.94454158     0.15300
H856        H  0.70810661  0.27593530  0.92152247     0.14000
H857        H  0.70714279  0.21417174  0.59797317     0.11700
H858        H  0.77701756  0.19296409  0.58936671     0.13700
C859        C  0.74652050  0.23157176  0.73001226     0.19800
C860        C  0.76955762  0.24662355  0.75169113    -0.18300
C861        C  0.76024398  0.26566602  0.78095206    -0.10600
C862        C  0.72754773  0.26953834  0.78988729     0.22100
C863        C  0.70437249  0.25502064  0.76771363    -0.19900
C864        C  0.71373063  0.23605092  0.73814265    -0.10700
C865        C  0.71747672  0.28905884  0.82180474    -0.14900
C866        C  0.73593104  0.29075279  0.85277097    -0.28800
C867        C  0.75765931  0.20953884  0.70118798    -0.03000
C868        C  0.74130535  0.20465138  0.66920299    -0.39600
H869        H  0.79492221  0.24361158  0.74595055     0.13200
H870        H  0.77876852  0.27743376  0.79646453     0.12800
H871        H  0.67905543  0.25776202  0.77384643     0.12300
H872        H  0.69536972  0.22417593  0.72248756     0.12500
H873        H  0.69484231  0.30187343  0.81962059     0.15300
H874        H  0.75720884  0.27573610  0.85483318     0.14000
H875        H  0.78005016  0.19711078  0.70711396     0.11700
H876        H  0.71960842  0.21851044  0.66388268     0.13700
C877        C  0.64859899  0.35699964  0.90335497     0.19800
C878        C  0.62263475  0.35046018  0.92706317    -0.18300
C879        C  0.59781334  0.37227841  0.93149236    -0.10600
C880        C  0.59827989  0.40144808  0.91240400     0.22100
C881        C  0.62289218  0.40726884  0.88653692    -0.19900
C882        C  0.64805399  0.38536138  0.88221016    -0.10700
C883        C  0.57414537  0.42630775  0.92095242    -0.14900
C884        C  0.56474088  0.43073270  0.95635552    -0.28800
C885        C  0.67659425  0.33479487  0.90495075    -0.03000
C886        C  0.70145279  0.33420443  0.88072160    -0.39600
H887        H  0.62374610  0.34012904  0.46378021     0.13200
H888        H  0.57859671  0.36659689  0.95065913     0.12800
H889        H  0.62355434  0.42945036  0.87115133     0.12300
H890        H  0.66756241  0.39144554  0.86371942     0.12500
H891        H  0.56557232  0.44206618  0.89867848     0.15300
H892        H  0.57554283  0.41639998  0.97868366     0.14000
H893        H  0.67660002  0.31848678  0.92860274     0.11700
H894        H  0.70113298  0.35024219  0.85672529     0.13700
C895        C  0.85520833  0.40859678  0.90725128     0.19800
C896        C  0.84005959  0.39913674  0.87434504    -0.18300
C897        C  0.81134048  0.38260558  0.87545493    -0.10600
C898        C  0.79701047  0.37450289  0.90970157     0.22100
C899        C  0.81161308  0.38446476  0.94279384    -0.19900
C900        C  0.84056213  0.40124205  0.94169229    -0.10700
C901        C  0.76707688  0.35554419  0.91110885    -0.14900
C902        C  0.76107611  0.33344445  0.88570919    -0.28800
C903        C  0.88592312  0.42610259  0.90322299    -0.03000
C904        C  0.90232369  0.44028382  0.93058693    -0.39600
H905        H  0.85042210  0.40473284  0.84736483     0.13200
H906        H  0.80027944  0.37648668  0.84926084     0.12800
H907        H  0.80093385  0.37872071  0.96955019     0.12300
H908        H  0.85134476  0.40803498  0.96773870     0.12500
H909        H  0.75069503  0.35840135  0.93428105     0.15300
H910        H  0.77885306  0.32977439  0.86411272     0.14000
H911        H  0.89517869  0.42829603  0.87499471     0.11700
H912        H  0.89411062  0.43929161  0.95921534     0.13700
C913        C  0.23371583  0.24029811  0.75875895     0.19800
C914        C  0.23325014  0.26754377  0.73541382    -0.18300
C915        C  0.24730588  0.26741277  0.69980676    -0.10600
C916        C  0.26220786  0.24006859  0.68658317     0.22100
C917        C  0.26278147  0.21311687  0.71003016    -0.19900
C918        C  0.24892642  0.21326858  0.74548464    -0.10700
C919        C  0.27815110  0.23808902  0.64931917    -0.14900
C920        C  0.28623826  0.26273675  0.62664542    -0.28800
C921        C  0.21702060  0.23782616  0.79573606    -0.03000
C922        C  0.19709059  0.25993142  0.80937372    -0.39600
H923        H  0.22198780  0.28907259  0.74404636     0.13200
H924        H  0.24603554  0.28868820  0.68279648     0.12800
H925        H  0.27416885  0.19167815  0.70092892     0.12300
H926        H  0.24967379  0.19185147  0.76241824     0.12500
H927        H  0.28518955  0.21464465  0.64138939     0.15300
H928        H  0.27783047  0.28603333  0.63339634     0.14000
H929        H  0.21824878  0.21526780  0.81055575     0.11700
H930        H  0.19510142  0.28248969  0.79490974     0.13700
C931        C  0.25337578  0.24922311  0.00470037     0.19800
C932        C  0.22678612  0.23127042  0.99413584    -0.18300
C933        C  0.21450572  0.23299935  0.95747255    -0.10600
C934        C  0.22871625  0.25264168  0.93010832     0.22100
C935        C  0.25554135  0.27024288  0.94052219    -0.19900
C936        C  0.26769805  0.26865551  0.97716482    -0.10700
C937        C  0.21711228  0.25460664  0.89032264    -0.14900
C938        C  0.18652379  0.24862285  0.87989049    -0.28800
C939        C  0.26803041  0.24752642  0.54152115    -0.03000
C940        C  0.29032048  0.26693603  0.55581340    -0.39600
H941        H  0.21563716  0.21552567  0.01428146     0.13200
H942        H  0.19444390  0.21825751  0.95052039     0.12800
H943        H  0.26734140  0.28523105  0.92008055     0.12300
H944        H  0.28898378  0.28196734  0.98323151     0.12500
H945        H  0.23391141  0.26305981  0.86942979     0.15300
H946        H  0.16930420  0.24290049  0.90157451     0.14000
H947        H  0.26067533  0.22755173  0.55874825     0.11700
H948        H  0.29161999  0.28747122  0.04412442     0.13700
C949        C  0.40193231  0.38644889  0.56972173     0.19800
C950        C  0.40681373  0.35512151  0.55982105    -0.18300
C951        C  0.38462222  0.33196911  0.56954435    -0.10600
C952        C  0.35663600  0.33952346  0.58943915     0.22100
C953        C  0.35208568  0.37077682  0.60022677    -0.19900
C954        C  0.37459234  0.39400951  0.59074160    -0.10700
C955        C  0.33039933  0.31617395  0.59528502    -0.14900
C956        C  0.33554289  0.28476870  0.59548353    -0.28800
C957        C  0.42374573  0.41064889  0.55345051    -0.03000
C958        C  0.42893264  0.43935653  0.56722870    -0.39600
H959        H  0.42742284  0.34867722  0.54324001     0.13200
H960        H  0.38874791  0.30858308  0.55947373     0.12800
H961        H  0.33058078  0.37741102  0.61509556     0.12300
H962        H  0.36967137  0.41802033  0.59818414     0.12500
H963        H  0.30591909  0.32508653  0.59701694     0.15300
H964        H  0.36026273  0.27635006  0.59546104     0.14000
H965        H  0.43632981  0.40427068  0.52820622     0.11700
H966        H  0.41849223  0.44596972  0.59359315     0.13700
C967        C  0.40101745  0.13008992  0.61686147     0.19800
C968        C  0.38264282  0.13965618  0.58551656    -0.18300
C969        C  0.36413854  0.16719738  0.58550078    -0.10600
C970        C  0.36353912  0.18618151  0.61704528     0.22100
C971        C  0.38171703  0.17647167  0.64863043    -0.19900
C972        C  0.40026799  0.14877125  0.64863934    -0.10700
C973        C  0.34546660  0.21665533  0.61793187    -0.14900
C974        C  0.32541787  0.22796458  0.59068717    -0.28800
C975        C  0.42148536  0.10134793  0.61386895    -0.03000
C976        C  0.43584779  0.08529892  0.64248437    -0.39600
H977        H  0.38282841  0.12584148  0.56055733     0.13200
H978        H  0.35101929  0.17347180  0.56029709     0.12800
H979        H  0.38191610  0.19061860  0.67331487     0.12300
H980        H  0.41443816  0.14259893  0.67317557     0.12500
H981        H  0.34885882  0.23084351  0.64240000     0.15300
H982        H  0.32122085  0.21433845  0.56609686     0.14000
H983        H  0.42436730  0.09246600  0.58591269     0.11700
H984        H  0.43288515  0.09253658  0.67104383     0.13700
loop_ 
_geom_bond_atom_site_label_1 
_geom_bond_atom_site_label_2 
_geom_bond_distance 
_geom_bond_site_symmetry_2 
_ccdc_geom_bond_type 
C1          C428   1.535       .  S
C1          C448   1.546       .  S
C1          C464   1.536       .  S
C1          C482   1.534       .  S
C2          C356   1.538       .  S
C2          C374   1.532       .  S
C2          C394   1.542       .  S
C2          C410   1.532       .  S
C3          C284   1.532       .  S
C3          C302   1.532       .  S
C3          C320   1.532       .  S
C3          C338   1.529       .  S
O4            C7   1.270       .  A
O4         Cd501   2.512       .  S
C5           O10   1.270       .  A
C5          O506   1.266       .  A
C5          C322   1.482       .  S
O6           C12   1.271       .  A
O6           Cd9   2.519   1_554  S
C7          O507   1.264       .  A
C7          C392   1.477       .  S
C8           O13   1.271       .  A
C8          O503   1.264   1_554  A
C8          C266   1.479       .  S
Cd9          O15   2.436   1_556  S
Cd9          O14   2.447       .  S
Cd9          O13   2.527   1_556  S
Cd9         O496   2.516       .  S
Cd9         O508   2.431   1_556  S
Cd9         O502   2.498       .  S
Cd9         O503   2.429       .  S
O10        Cd501   2.499       .  S
O11         C500   1.263       .  A
O11        Cd501   2.440       .  S
C12         O508   1.265       .  A
C12         C466   1.484       .  S
O14         C497   1.265       .  A
O15         C499   1.265   1_554  A
O16         C504   1.265       .  A
O16        Cd501   2.441       .  S
C17         C232   1.538       .  S
C17         C250   1.529       .  S
C17         C358   1.532       .  S
C17         C376   1.540       .  S
C18         C176   1.530       .  S
C18         C194   1.533       .  S
C18         C214   1.530       .  S
C18         C268   1.533       .  S
C19         C140   1.530       .  S
C19         C160   1.530       .  S
C19         C178   1.533       .  S
C19         C196   1.533       .  S
O20          C23   1.270       .  A
O20         Cd25   2.526       .  S
C21          O30   1.264       .  A
C21          O26   1.272       .  A
C21         C122   1.476       .  S
O22          C28   1.268       .  A
O22         Cd25   2.492   1_455  S
C23          O31   1.264       .  A
C23         C248   1.487       .  S
C24          O29   1.269       .  A
C24          O27   1.266       .  A
C24         C142   1.478       .  S
Cd25         O32   2.457   1_655  S
Cd25         O31   2.431       .  S
Cd25         O30   2.425   1_645  S
Cd25         O26   2.502   1_645  S
Cd25         O29   2.487   1_545  S
Cd25         O27   2.437   1_545  S
C28          O32   1.266       .  A
C28         C104   1.482       .  S
C33          C86   1.532       .  S
C33         C124   1.531       .  S
C33         C286   1.526       .  S
C33         C304   1.534       .  S
O34          C37   1.272       .  A
O34         Cd39   2.403       .  S
C35          O44   1.279       .  A
C35          O40   1.273       .  A
C35          C88   1.485       .  S
O36          C42   1.272       .  A
O36         Cd39   2.388       .  S
C37          O45   1.278       .  A
C37         C230   1.486       .  S
C38          O43   1.273       .  A
C38          O41   1.278       .  A
C38         C212   1.481       .  S
Cd39         O46   2.471       .  S
Cd39         O45   2.484       .  S
Cd39         O44   2.477   1_545  S
Cd39         O40   2.399   1_545  S
Cd39         O43   2.407   1_545  S
Cd39         O41   2.466   1_545  S
C42          O46   1.278       .  A
C42         C484   1.482       .  S
C47          C70   1.529       .  S
C47         C106   1.532       .  S
C47         C430   1.536       .  S
C47         C446   1.543       .  S
O48          C51   1.274       .  A
O48         Cd53   2.506   1_455  S
C49          O58   1.270       .  A
C49          O54   1.273       .  A
C49         C412   1.484       .  S
O50          C56   1.275       .  A
O50         Cd53   2.507       .  S
C51          O59   1.267       .  A
C51         C340   1.482       .  S
C52          O57   1.276       .  A
C52          O55   1.266       .  A
C52          C68   1.478       .  S
Cd53         O60   2.397       .  S
Cd53         O59   2.401   1_655  S
Cd53         O58   2.436       .  S
Cd53         O54   2.480       .  S
Cd53         O57   2.510   1_655  S
Cd53         O55   2.406   1_655  S
C56          O60   1.266       .  A
C56         C158   1.480       .  S
C61          C69   1.489       .  S
C61          C62   1.402       .  A
C61          C66   1.409       .  A
C62          C63   1.399       .  A
C62          H71   1.083       .  S
C63          C64   1.408       .  A
C63          H72   1.082       .  S
C64          C67   1.491       .  S
C64          C65   1.403       .  A
C65          C66   1.403       .  A
C65          H73   1.083       .  S
C66          H74   1.082       .  S
C67          H75   1.086       .  S
C67          C68   1.344       .  D
C68          H76   1.086       .  S
C69          H77   1.087       .  S
C69          C70   1.348       .  D
C70          H78   1.087       .  S
C79          C87   1.490       .  S
C79          C80   1.404       .  A
C79          C84   1.408       .  A
C80          C81   1.396       .  A
C80          H89   1.084       .  S
C81          C82   1.406       .  A
C81          H90   1.082       .  S
C82          C85   1.492       .  S
C82          C83   1.407       .  A
C83          C84   1.406       .  A
C83          H91   1.083       .  S
C84          H92   1.082       .  S
C85          H93   1.085       .  S
C85          C86   1.352       .  D
C86          H94   1.087       .  S
C87          H95   1.087       .  S
C87          C88   1.350       .  D
C88          H96   1.085       .  S
C97         C105   1.491       .  S
C97          C98   1.405       .  A
C97         C102   1.406       .  A
C98          C99   1.404       .  A
C98         H107   1.083       .  S
C99         C100   1.410       .  A
C99         H108   1.081       .  S
C100        C103   1.492       .  S
C100        C101   1.405       .  A
C101        C102   1.397       .  A
C101        H109   1.083       .  S
C102        H110   1.082       .  S
C103        H111   1.087       .  S
C103        C104   1.349       .  D
C104        H112   1.084       .  S
C105        H113   1.084       .  S
C105        C106   1.351       .  D
C106        H114   1.087       .  S
C115        C123   1.489       .  S
C115        C116   1.402       .  A
C115        C120   1.409       .  A
C116        C117   1.397       .  A
C116        H125   1.084       .  S
C117        C118   1.408       .  A
C117        H126   1.081       .  S
C118        C121   1.491       .  S
C118        C119   1.404       .  A
C119        C120   1.403       .  A
C119        H127   1.083       .  S
C120        H128   1.081       .  S
C121        H129   1.087       .  S
C121        C122   1.345       .  D
C122        H130   1.085       .  S
C123        H131   1.087       .  S
C123        C124   1.348       .  D
C124        H132   1.085       .  S
C133        C141   1.487       .  S
C133        C134   1.404       .  A
C133        C138   1.407       .  A
C134        C135   1.398       .  A
C134        H143   1.084       .  S
C135        C136   1.408       .  A
C135        H144   1.081       .  S
C136        C139   1.490       .  S
C136        C137   1.404       .  A
C137        C138   1.401       .  A
C137        H145   1.083       .  S
C138        H146   1.081       .  S
C139        H147   1.087       .  S
C139        C140   1.349       .  D
C140        H148   1.085       .  S
C141        H149   1.087       .  S
C141        C142   1.348       .  D
C142        H150   1.085       .  S
C151        C159   1.480       .  S
C151        C152   1.404       .  A
C151        C156   1.403       .  A
C152        C153   1.402       .  A
C152        H161   1.083       .  S
C153        C154   1.407       .  A
C153        H162   1.083       .  S
C154        C157   1.483       .  S
C154        C155   1.404       .  A
C155        C156   1.398       .  A
C155        H163   1.083       .  S
C156        H164   1.083       .  S
C157        H165   1.088       .  S
C157        C158   1.348       .  D
C158        H166   1.086       .  S
C159        H167   1.086       .  S
C159        C160   1.347       .  D
C160        H168   1.088       .  S
C169        C177   1.492       .  S
C169        C170   1.404       .  A
C169        C174   1.410       .  A
C170        C171   1.397       .  A
C170        H179   1.084       .  S
C171        C172   1.406       .  A
C171        H180   1.082       .  S
C172        C175   1.491       .  S
C172        C173   1.405       .  A
C173        C174   1.403       .  A
C173        H181   1.083       .  S
C174        H182   1.080       .  S
C175        H183   1.087       .  S
C175        C176   1.349       .  D
C176        H184   1.086       .  S
C177        H185   1.088       .  S
C177        C178   1.351       .  D
C178        H186   1.083       .  S
C187        C195   1.486       .  S
C187        C188   1.404       .  A
C187        C192   1.406       .  A
C188        C189   1.399       .  A
C188        H197   1.083       .  S
C189        C190   1.403       .  A
C189        H198   1.083       .  S
C190        C685   1.485       .  S
C190        C191   1.406       .  A
C191        C192   1.405       .  A
C191        H199   1.083       .  S
C192        H200   1.083       .  S
C193        C682   1.484       .  S
C193        H201   1.086       .  S
C193        C194   1.350       .  D
C194        H694   1.088       .  S
C195        H203   1.087       .  S
C195        C196   1.350       .  D
C196        H204   1.087       .  S
H202        C686   1.088       .  S
C205        C213   1.485       .  S
C205        C206   1.403       .  A
C205        C210   1.405       .  A
C206        C207   1.402       .  A
C206        H215   1.083       .  S
C207        C208   1.408       .  A
C207        H216   1.082       .  S
C208        C211   1.488       .  S
C208        C209   1.405       .  A
C209        C210   1.399       .  A
C209        H217   1.084       .  S
C210        H218   1.083       .  S
C211        H219   1.087       .  S
C211        C212   1.349       .  D
C212        H220   1.085       .  S
C213        H221   1.087       .  S
C213        C214   1.347       .  D
C214        H222   1.087       .  S
C223        C231   1.496       .  S
C223        C224   1.408       .  A
C223        C228   1.407       .  A
C224        C225   1.405       .  A
C224        H233   1.083       .  S
C225        C226   1.408       .  A
C225        H234   1.081       .  S
C226        C229   1.492       .  S
C226        C227   1.404       .  A
C227        C228   1.397       .  A
C227        H235   1.084       .  S
C228        H236   1.080       .  S
C229        H237   1.087       .  S
C229        C230   1.351       .  D
C230        H238   1.084       .  S
C231        H239   1.084       .  S
C231        C232   1.356       .  D
C232        H240   1.081       .  S
C241        C249   1.496       .  S
C241        C242   1.409       .  A
C241        C246   1.406       .  A
C242        C243   1.408       .  A
C242        H251   1.083       .  S
C243        C244   1.409       .  A
C243        H252   1.081       .  S
C244        C247   1.492       .  S
C244        C245   1.404       .  A
C245        C246   1.394       .  A
C245        H253   1.084       .  S
C246        H254   1.081       .  S
C247        H255   1.087       .  S
C247        C248   1.351       .  D
C248        H256   1.084       .  S
C249        H257   1.087       .  S
C249        C250   1.353       .  D
C250        H258   1.085       .  S
C259        C267   1.493       .  S
C259        C260   1.404       .  A
C259        C264   1.410       .  A
C260        C261   1.396       .  A
C260        H761   1.084       .  S
C261        C262   1.407       .  A
C261        H270   1.082       .  S
C262        C265   1.495       .  S
C262        C263   1.406       .  A
C263        C264   1.407       .  A
C263        H271   1.083       .  S
C264        H272   1.080       .  S
C265        H273   1.086       .  S
C265        C266   1.347       .  D
C266        H274   1.085   1_554  S
C267        H275   1.088       .  S
C267        C268   1.352       .  D
C268        H276   1.084       .  S
H269        C752   1.084       .  S
C277        C285   1.491       .  S
C277        C278   1.405       .  A
C277        C282   1.408       .  A
C278        C279   1.401       .  A
C278        H287   1.083       .  S
C279        C280   1.408       .  A
C279        H288   1.081   1_554  S
C280        C283   1.488   1_554  S
C280        C281   1.403       .  A
C281        C282   1.399       .  A
C281        H289   1.083       .  S
C282        H290   1.081       .  S
C283        H291   1.087       .  S
C283        C776   1.350       .  D
C284        H292   1.084       .  S
C284        C775   1.351       .  D
C285        H293   1.087       .  S
C285        C286   1.351       .  D
C286        H294   1.085       .  S
C295        C303   1.492       .  S
C295        C296   1.404       .  A
C295        C300   1.407       .  A
C296        C297   1.403       .  A
C296        H305   1.083       .  S
C297        C298   1.410       .  A
C297        H306   1.080       .  S
C298        C301   1.497       .  S
C298        C299   1.406       .  A
C299        C300   1.401       .  A
C299        H307   1.083       .  S
C300        H308   1.082       .  S
C301        H309   1.087       .  S
C301        C302   1.352       .  D
C302        H310   1.084       .  S
C303        H311   1.087       .  S
C303        C304   1.351       .  D
C304        H312   1.087       .  S
C313        C321   1.488       .  S
C313        C314   1.402       .  A
C313        C318   1.406       .  A
C314        C315   1.397       .  A
C314        H815   1.084       .  S
C315        C316   1.410       .  A
C315        H324   1.079       .  S
C316        C319   1.498       .  S
C316        C317   1.408       .  A
C317        C318   1.405       .  A
C317        H325   1.083       .  S
C318        H326   1.082       .  S
C319        H327   1.087       .  S
C319        C320   1.352       .  D
C320        H328   1.082       .  S
C321        H821   1.087       .  S
C321        C322   1.348       .  D
C322        H330   1.085       .  S
H323        C806   1.084       .  S
H329        C813   1.087       .  S
C331        C339   1.487       .  S
C331        C332   1.404       .  A
C331        C336   1.407       .  A
C332        C333   1.396       .  A
C332        H341   1.084       .  S
C333        C334   1.405       .  A
C333        H342   1.082       .  S
C334        C337   1.486       .  S
C334        C335   1.405       .  A
C335        C336   1.404       .  A
C335        H343   1.083       .  S
C336        H344   1.082       .  S
C337        H345   1.087       .  S
C337        C338   1.349       .  D
C338        H346   1.087       .  S
C339        H347   1.088       .  S
C339        C340   1.349       .  D
C340        H348   1.085       .  S
C349        C357   1.489       .  S
C349        C350   1.405       .  A
C349        C354   1.409       .  A
C350        C351   1.398   1_554  A
C350        H359   1.083       .  S
C351        C352   1.406       .  A
C351        H360   1.082       .  S
C352        C355   1.485       .  S
C352        C353   1.403       .  A
C353        C354   1.400   1_556  A
C353        H361   1.083       .  S
C354        H362   1.080       .  S
C355        H855   1.084       .  S
C355        C848   1.349       .  D
C356        H364   1.087       .  S
C356        C847   1.349       .  D
C357        H365   1.087       .  S
C357        C358   1.351       .  D
C358        H366   1.084       .  S
H363        C847   1.085       .  S
C367        C375   1.491       .  S
C367        C368   1.403       .  A
C367        C372   1.408       .  A
C368        C369   1.400       .  A
C368        H377   1.083       .  S
C369        C370   1.407       .  A
C369        H378   1.082       .  S
C370        C373   1.494       .  S
C370        C371   1.406       .  A
C371        C372   1.404       .  A
C371        H379   1.083       .  S
C372        H380   1.082       .  S
C373        H381   1.086       .  S
C373        C374   1.352       .  D
C374        H382   1.087       .  S
C375        H383   1.086       .  S
C375        C376   1.352       .  D
C376        H384   1.087       .  S
C385        C393   1.491       .  S
C385        C386   1.404       .  A
C385        C390   1.409       .  A
C386        C387   1.394       .  A
C386        H887   1.084       .  S
C387        C388   1.405       .  A
C387        H396   1.083       .  S
C388        C391   1.491       .  S
C388        C389   1.406       .  A
C389        C390   1.407       .  A
C389        H397   1.083       .  S
C390        H398   1.081       .  S
C391        H399   1.086       .  S
C391        C392   1.347       .  D
C392        H400   1.086       .  S
C393        H401   1.083       .  S
C393        C394   1.356       .  D
C394        H402   1.085       .  S
H395        C878   1.084       .  S
C403        C411   1.495       .  S
C403        C404   1.406       .  A
C403        C408   1.410       .  A
C404        C405   1.398       .  A
C404        H413   1.083       .  S
C405        C406   1.405       .  A
C405        H414   1.082       .  S
C406        C409   1.489       .  S
C406        C407   1.405       .  A
C407        C408   1.404       .  A
C407        H415   1.083       .  S
C408        H416   1.080       .  S
C409        H417   1.087       .  S
C409        C410   1.351       .  D
C410        H418   1.086       .  S
C411        H419   1.087       .  S
C411        C412   1.351       .  D
C412        H420   1.083       .  S
C421        C429   1.491       .  S
C421        C422   1.403       .  A
C421        C426   1.407       .  A
C422        C423   1.406       .  A
C422        H431   1.083       .  S
C423        C424   1.410       .  A
C423        H432   1.083       .  S
C424        C427   1.494       .  S
C424        C425   1.403       .  A
C425        C426   1.403       .  A
C425        H433   1.083       .  S
C426        H434   1.083       .  S
C427        H435   1.084       .  S
C427        C428   1.348       .  D
C428        H436   1.088       .  S
C429        H437   1.086       .  S
C429        C430   1.349       .  D
C430        H438   1.089       .  S
C439        C939   1.510       .  S
C439        C440   1.408       .  A
C439        C444   1.413       .  A
C440        C441   1.407       .  A
C440        H449   1.083       .  S
C441        C442   1.410       .  A
C441        H450   1.081       .  S
C442        C445   1.505       .  S
C442        C443   1.405       .  A
C443        C444   1.406       .  A
C443        H451   1.083       .  S
C444        H452   1.079       .  S
C445        H453   1.085       .  S
C445        C446   1.354       .  D
C446        H454   1.085       .  S
C447        C931   1.505       .  S
C447        H455   1.085       .  S
C447        C448   1.356       .  D
C448        H948   1.085       .  S
H456        C940   1.083       .  S
C457        C465   1.488       .  S
C457        C458   1.404       .  A
C457        C462   1.407       .  A
C458        C459   1.397       .  A
C458        H467   1.084       .  S
C459        C460   1.406       .  A
C459        H468   1.082       .  S
C460        C463   1.491       .  S
C460        C461   1.407       .  A
C461        C462   1.405       .  A
C461        H469   1.083       .  S
C462        H470   1.082       .  S
C463        H471   1.087       .  S
C463        C464   1.352       .  D
C464        H472   1.087       .  S
C465        H473   1.088       .  S
C465        C466   1.349       .  D
C466        H474   1.085       .  S
C475        C483   1.491       .  S
C475        C476   1.405       .  A
C475        C480   1.407       .  A
C476        C477   1.397       .  A
C476        H485   1.084       .  S
C477        C478   1.407       .  A
C477        H486   1.080       .  S
C478        C481   1.493       .  S
C478        C479   1.407       .  A
C479        C480   1.402       .  A
C479        H487   1.083       .  S
C480        H488   1.080       .  S
C481        H489   1.087       .  S
C481        C482   1.353       .  D
C482        H490   1.082       .  S
C483        H491   1.087       .  S
C483        C484   1.351       .  D
C484        H492   1.083       .  S
C493        C920   1.546       .  S
C493        C940   1.542       .  S
C493        C956   1.539       .  S
C493        C974   1.540       .  S
C494        C848   1.534       .  S
C494        C866   1.527       .  S
C494        C886   1.544       .  S
C494        C902   1.530       .  S
C495        C776   1.532       .  S
C495        C794   1.533       .  S
C495        C812   1.533       .  S
C495        C830   1.532       .  S
O496        C499   1.270       .  A
C497        O502   1.269       .  A
C497        C814   1.482       .  S
O498        C504   1.271       .  A
O498       Cd501   2.522       .  S
C499        C884   1.478       .  S
C500        O505   1.271       .  A
C500        C758   1.482       .  S
Cd501       O507   2.429       .  S
Cd501       O506   2.442       .  S
Cd501       O505   2.534       .  S
C504        C958   1.486       .  S
C509        C724   1.531       .  S
C509        C742   1.537       .  S
C509        C850   1.529       .  S
C509        C868   1.539       .  S
C510        C668   1.530       .  S
C510        C686   1.534       .  S
C510        C706   1.531       .  S
C510        C760   1.535       .  S
C511        C632   1.535       .  S
C511        C652   1.533       .  S
C511        C670   1.533       .  S
C511        C688   1.532       .  S
O512        C515   1.270       .  A
O512       Cd517   2.512       .  S
C513        O522   1.263       .  A
C513        O518   1.271       .  A
C513        C614   1.479       .  S
O514        C520   1.269       .  A
O514       Cd517   2.486   1_455  S
C515        O523   1.265       .  A
C515        C740   1.484       .  S
C516        O521   1.268       .  A
C516        O519   1.266       .  A
C516        C634   1.486       .  S
Cd517       O524   2.468   1_655  S
Cd517       O523   2.451       .  S
Cd517       O522   2.426   1_645  S
Cd517       O518   2.530   1_645  S
Cd517       O521   2.505   1_545  S
Cd517       O519   2.471   1_545  S
C520        O524   1.267       .  A
C520        C596   1.483       .  S
C525        C578   1.533       .  S
C525        C616   1.534       .  S
C525        C778   1.528       .  S
C525        C796   1.534       .  S
O526        C529   1.272       .  A
O526       Cd531   2.389       .  S
C527        O536   1.278       .  A
C527        O532   1.273       .  A
C527        C580   1.483       .  S
O528        C534   1.272       .  A
O528       Cd531   2.400       .  S
C529        O537   1.279       .  A
C529        C722   1.484       .  S
C530        O535   1.273       .  A
C530        O533   1.278       .  A
C530        C704   1.481       .  S
Cd531       O538   2.483       .  S
Cd531       O537   2.479       .  S
Cd531       O536   2.472   1_545  S
Cd531       O532   2.406   1_545  S
Cd531       O535   2.405   1_545  S
Cd531       O533   2.468   1_545  S
C534        O538   1.278       .  A
C534        C976   1.485       .  S
C539        C562   1.526       .  S
C539        C598   1.535       .  S
C539        C922   1.538       .  S
C539        C938   1.542       .  S
O540        C543   1.274       .  A
O540       Cd545   2.511   1_455  S
C541        O550   1.269       .  A
C541        O546   1.274       .  A
C541        C904   1.486       .  S
O542        C548   1.272       .  A
O542       Cd545   2.498       .  S
C543        O551   1.265       .  A
C543        C832   1.483       .  S
C544        O549   1.275       .  A
C544        O547   1.266       .  A
C544        C560   1.474       .  S
Cd545       O552   2.422       .  S
Cd545       O551   2.413   1_655  S
Cd545       O550   2.418       .  S
Cd545       O546   2.500       .  S
Cd545       O549   2.495   1_655  S
Cd545       O547   2.405   1_655  S
C548        O552   1.266       .  A
C548        C650   1.478       .  S
C553        C561   1.486       .  S
C553        C554   1.402       .  A
C553        C558   1.409       .  A
C554        C555   1.398       .  A
C554        H563   1.083       .  S
C555        C556   1.408       .  A
C555        H564   1.083       .  S
C556        C559   1.486       .  S
C556        C557   1.402       .  A
C557        C558   1.401       .  A
C557        H565   1.083       .  S
C558        H566   1.082       .  S
C559        H567   1.086       .  S
C559        C560   1.343       .  D
C560        H568   1.087       .  S
C561        H569   1.087       .  S
C561        C562   1.348       .  D
C562        H570   1.088       .  S
C571        C579   1.487       .  S
C571        C572   1.402       .  A
C571        C576   1.407       .  A
C572        C573   1.397       .  A
C572        H581   1.084       .  S
C573        C574   1.408       .  A
C573        H582   1.081       .  S
C574        C577   1.494       .  S
C574        C575   1.406       .  A
C575        C576   1.405       .  A
C575        H583   1.083       .  S
C576        H584   1.082       .  S
C577        H585   1.085       .  S
C577        C578   1.351       .  D
C578        H586   1.086       .  S
C579        H587   1.087       .  S
C579        C580   1.348       .  D
C580        H588   1.085       .  S
C589        C597   1.491       .  S
C589        C590   1.404       .  A
C589        C594   1.406       .  A
C590        C591   1.403       .  A
C590        H599   1.083       .  S
C591        C592   1.410       .  A
C591        H600   1.080       .  S
C592        C595   1.496       .  S
C592        C593   1.406       .  A
C593        C594   1.399       .  A
C593        H601   1.083       .  S
C594        H602   1.082       .  S
C595        H603   1.087       .  S
C595        C596   1.350       .  D
C596        H604   1.082       .  S
C597        H605   1.084       .  S
C597        C598   1.351       .  D
C598        H606   1.087       .  S
C607        C615   1.494       .  S
C607        C608   1.402       .  A
C607        C612   1.410       .  A
C608        C609   1.399       .  A
C608        H617   1.083       .  S
C609        C610   1.410       .  A
C609        H618   1.081       .  S
C610        C613   1.497       .  S
C610        C611   1.405       .  A
C611        C612   1.404       .  A
C611        H619   1.083       .  S
C612        H620   1.081       .  S
C613        H621   1.086       .  S
C613        C614   1.347       .  D
C614        H622   1.084       .  S
C615        H623   1.087       .  S
C615        C616   1.349       .  D
C616        H624   1.085       .  S
C625        C633   1.496       .  S
C625        C626   1.406       .  A
C625        C630   1.409       .  A
C626        C627   1.400       .  A
C626        H635   1.083       .  S
C627        C628   1.406       .  A
C627        H636   1.082       .  S
C628        C631   1.494       .  S
C628        C629   1.406       .  A
C629        C630   1.406       .  A
C629        H637   1.083       .  S
C630        H638   1.081       .  S
C631        H639   1.087       .  S
C631        C632   1.352       .  D
C632        H640   1.086       .  S
C633        H641   1.087       .  S
C633        C634   1.351       .  D
C634        H642   1.084       .  S
C643        C651   1.485       .  S
C643        C644   1.403       .  A
C643        C648   1.406       .  A
C644        C645   1.400       .  A
C644        H653   1.083       .  S
C645        C646   1.405       .  A
C645        H654   1.083       .  S
C646        C649   1.483       .  S
C646        C647   1.404       .  A
C647        C648   1.402       .  A
C647        H655   1.083       .  S
C648        H656   1.083       .  S
C649        H657   1.087       .  S
C649        C650   1.347       .  D
C650        H658   1.086       .  S
C651        H659   1.087       .  S
C651        C652   1.347       .  D
C652        H660   1.088       .  S
C661        C669   1.493       .  S
C661        C662   1.404       .  A
C661        C666   1.410       .  A
C662        C663   1.397       .  A
C662        H671   1.084       .  S
C663        C664   1.407       .  A
C663        H672   1.081       .  S
C664        C667   1.492       .  S
C664        C665   1.405       .  A
C665        C666   1.404       .  A
C665        H673   1.083       .  S
C666        H674   1.080       .  S
C667        H675   1.087       .  S
C667        C668   1.350       .  D
C668        H676   1.085       .  S
C669        H677   1.088       .  S
C669        C670   1.351       .  D
C670        H678   1.083       .  S
C679        C687   1.485       .  S
C679        C680   1.405       .  A
C679        C684   1.405       .  A
C680        C681   1.400       .  A
C680        H689   1.083       .  S
C681        C682   1.404   1_556  A
C681        H690   1.083       .  S
C682        C683   1.405   1_554  A
C683        C684   1.403       .  A
C683        H691   1.083   1_556  S
C684        H692   1.083       .  S
C685        H693   1.086       .  S
C685        C686   1.351       .  D
C687        H695   1.087       .  S
C687        C688   1.351       .  D
C688        H696   1.087       .  S
C697        C705   1.488       .  S
C697        C698   1.405       .  A
C697        C702   1.407       .  A
C698        C699   1.402       .  A
C698        H707   1.083       .  S
C699        C700   1.406       .  A
C699        H708   1.082       .  S
C700        C703   1.486       .  S
C700        C701   1.404       .  A
C701        C702   1.399       .  A
C701        H709   1.083       .  S
C702        H710   1.082       .  S
C703        H711   1.087       .  S
C703        C704   1.348       .  D
C704        H712   1.086       .  S
C705        H713   1.087       .  S
C705        C706   1.349       .  D
C706        H714   1.087       .  S
C715        C723   1.492       .  S
C715        C716   1.406       .  A
C715        C720   1.406       .  A
C716        C717   1.406       .  A
C716        H725   1.083       .  S
C717        C718   1.409       .  A
C717        H726   1.080       .  S
C718        C721   1.492       .  S
C718        C719   1.404       .  A
C719        C720   1.395       .  A
C719        H727   1.084       .  S
C720        H728   1.082       .  S
C721        H729   1.087       .  S
C721        C722   1.351       .  D
C722        H730   1.083       .  S
C723        H731   1.086       .  S
C723        C724   1.350       .  D
C724        H732   1.087       .  S
C733        C741   1.491       .  S
C733        C734   1.405       .  A
C733        C738   1.407       .  A
C734        C735   1.404       .  A
C734        H743   1.083       .  S
C735        C736   1.408       .  A
C735        H744   1.082       .  S
C736        C739   1.491       .  S
C736        C737   1.405       .  A
C737        C738   1.399       .  A
C737        H745   1.084       .  S
C738        H746   1.083       .  S
C739        H747   1.087       .  S
C739        C740   1.350       .  D
C740        H748   1.085       .  S
C741        H749   1.084       .  S
C741        C742   1.350       .  D
C742        H750   1.088       .  S
C751        C759   1.494       .  S
C751        C752   1.405       .  A
C751        C756   1.409       .  A
C752        C753   1.397       .  A
C753        C754   1.406       .  A
C753        H762   1.082       .  S
C754        C757   1.497       .  S
C754        C755   1.407       .  A
C755        C756   1.408       .  A
C755        H763   1.083       .  S
C756        H764   1.081       .  S
C757        H765   1.086       .  S
C757        C758   1.349       .  D
C758        H766   1.085       .  S
C759        H767   1.088       .  S
C759        C760   1.354       .  D
C760        H768   1.085       .  S
C769        C777   1.494       .  S
C769        C770   1.405       .  A
C769        C774   1.409       .  A
C770        C771   1.400       .  A
C770        H779   1.083       .  S
C771        C772   1.408       .  A
C771        H780   1.080       .  S
C772        C775   1.492       .  S
C772        C773   1.405       .  A
C773        C774   1.400       .  A
C773        H781   1.084       .  S
C774        H782   1.079       .  S
C775        H783   1.087       .  S
C776        H784   1.085       .  S
C777        H785   1.087       .  S
C777        C778   1.352       .  D
C778        H786   1.083       .  S
C787        C795   1.498       .  S
C787        C788   1.404       .  A
C787        C792   1.409       .  A
C788        C789   1.402       .  A
C788        H797   1.083       .  S
C789        C790   1.411       .  A
C789        H798   1.079       .  S
C790        C793   1.500       .  S
C790        C791   1.406       .  A
C791        C792   1.402       .  A
C791        H799   1.083       .  S
C792        H800   1.080       .  S
C793        H801   1.087       .  S
C793        C794   1.352       .  D
C794        H802   1.082       .  S
C795        H803   1.087       .  S
C795        C796   1.351       .  D
C796        H804   1.085       .  S
C805        C813   1.490       .  S
C805        C806   1.403       .  A
C805        C810   1.406       .  A
C806        C807   1.398       .  A
C807        C808   1.410       .  A
C807        H816   1.079       .  S
C808        C811   1.499       .  S
C808        C809   1.407       .  A
C809        C810   1.403       .  A
C809        H817   1.083       .  S
C810        H818   1.082       .  S
C811        H819   1.087       .  S
C811        C812   1.352       .  D
C812        H820   1.082       .  S
C813        C814   1.349       .  D
C814        H822   1.085       .  S
C823        C831   1.487       .  S
C823        C824   1.404       .  A
C823        C828   1.406       .  A
C824        C825   1.398       .  A
C824        H833   1.084       .  S
C825        C826   1.406       .  A
C825        H834   1.082       .  S
C826        C829   1.490       .  S
C826        C827   1.406       .  A
C827        C828   1.403       .  A
C827        H835   1.083       .  S
C828        H836   1.082       .  S
C829        H837   1.087       .  S
C829        C830   1.350       .  D
C830        H838   1.086       .  S
C831        H839   1.088       .  S
C831        C832   1.350       .  D
C832        H840   1.085       .  S
C841        C849   1.497       .  S
C841        C842   1.405       .  A
C841        C846   1.413       .  A
C842        C843   1.399       .  A
C842        H851   1.083       .  S
C843        C844   1.407       .  A
C843        H852   1.082       .  S
C844        C847   1.489       .  S
C844        C845   1.402       .  A
C845        C846   1.401       .  A
C845        H853   1.083       .  S
C846        H854   1.079       .  S
C848        H856   1.087       .  S
C849        H857   1.087       .  S
C849        C850   1.350       .  D
C850        H858   1.083       .  S
C859        C867   1.487       .  S
C859        C860   1.401       .  A
C859        C864   1.409       .  A
C860        C861   1.397       .  A
C860        H869   1.083       .  S
C861        C862   1.409       .  A
C861        H870   1.082       .  S
C862        C865   1.491       .  S
C862        C863   1.404       .  A
C863        C864   1.404       .  A
C863        H871   1.083       .  S
C864        H872   1.082       .  S
C865        H873   1.085       .  S
C865        C866   1.349       .  D
C866        H874   1.088       .  S
C867        H875   1.084       .  S
C867        C868   1.351       .  D
C868        H876   1.087       .  S
C877        C885   1.493       .  S
C877        C878   1.405       .  A
C877        C882   1.410       .  A
C878        C879   1.395       .  A
C879        C880   1.404       .  A
C879        H888   1.083       .  S
C880        C883   1.491       .  S
C880        C881   1.406       .  A
C881        C882   1.407       .  A
C881        H889   1.083       .  S
C882        H890   1.081       .  S
C883        H891   1.086       .  S
C883        C884   1.348       .  D
C884        H892   1.087       .  S
C885        H893   1.083       .  S
C885        C886   1.355       .  D
C886        H894   1.085       .  S
C895        C903   1.493       .  S
C895        C896   1.404       .  A
C895        C900   1.410       .  A
C896        C897   1.394       .  A
C896        H905   1.084       .  S
C897        C898   1.405       .  A
C897        H906   1.082       .  S
C898        C901   1.492       .  S
C898        C899   1.406       .  A
C899        C900   1.407       .  A
C899        H907   1.083       .  S
C900        H908   1.081       .  S
C901        H909   1.086       .  S
C901        C902   1.351       .  D
C902        H910   1.087       .  S
C903        H911   1.087       .  S
C903        C904   1.350       .  D
C904        H912   1.084       .  S
C913        C921   1.502       .  S
C913        C914   1.414       .  A
C913        C918   1.404       .  A
C914        C915   1.408       .  A
C914        H923   1.079       .  S
C915        C916   1.409       .  A
C915        H924   1.080       .  S
C916        C919   1.499       .  S
C916        C917   1.406       .  A
C917        C918   1.399       .  A
C917        H925   1.084       .  S
C918        H926   1.083       .  S
C919        H927   1.084       .  S
C919        C920   1.358       .  D
C920        H928   1.083       .  S
C921        H929   1.087       .  S
C921        C922   1.352       .  D
C922        H930   1.083       .  S
C931        C932   1.407   1_554  A
C931        C936   1.411   1_554  A
C932        C933   1.407       .  A
C932        H941   1.083   1_556  S
C933        C934   1.410       .  A
C933        H942   1.082       .  S
C934        C937   1.503       .  S
C934        C935   1.405       .  A
C935        C936   1.404       .  A
C935        H943   1.083       .  S
C936        H944   1.081       .  S
C937        H945   1.085       .  S
C937        C938   1.353       .  D
C938        H946   1.086       .  S
C939        H947   1.087       .  S
C939        C940   1.356       .  D
C949        C957   1.491       .  S
C949        C950   1.403       .  A
C949        C954   1.408       .  A
C950        C951   1.398       .  A
C950        H959   1.084       .  S
C951        C952   1.408       .  A
C951        H960   1.081       .  S
C952        C955   1.497       .  S
C952        C953   1.408       .  A
C953        C954   1.407       .  A
C953        H961   1.083       .  S
C954        H962   1.082       .  S
C955        H963   1.086       .  S
C955        C956   1.353       .  D
C956        H964   1.086       .  S
C957        H965   1.088       .  S
C957        C958   1.350       .  D
C958        H966   1.085       .  S
C967        C975   1.491       .  S
C967        C968   1.404       .  A
C967        C972   1.407       .  A
C968        C969   1.397       .  A
C968        H977   1.084       .  S
C969        C970   1.407       .  A
C969        H978   1.079       .  S
C970        C973   1.495       .  S
C970        C971   1.408       .  A
C971        C972   1.404       .  A
C971        H979   1.083       .  S
C972        H980   1.081       .  S
C973        H981   1.087       .  S
C973        C974   1.356       .  D
C974        H982   1.082       .  S
C975        H983   1.087       .  S
C975        C976   1.351       .  D
C976        H984   1.084       .  S
