geometry optimzed in LAMMPS
_audit_creation_date              2020-11-30 
_audit_creation_method            'lammps2cif' 
_symmetry_space_group_name_H-M    'P1' 
_symmetry_Int_Tables_number       1 
_symmetry_cell_setting            triclinic 
loop_ 
_symmetry_equiv_pos_as_xyz 
  x,y,z 
_cell_length_a                    47.67878279 
_cell_length_b                    45.36853492513919 
_cell_length_c                    44.76604220829396 
_cell_angle_alpha                 89.67167490531024 
_cell_angle_beta                  89.90701649433089 
_cell_angle_gamma                 89.74444114085733 
loop_ 
_atom_site_label 
_atom_site_type_symbol 
_atom_site_fract_x 
_atom_site_fract_y 
_atom_site_fract_z 
_atom_site_charge 
C1          C  0.71403217  0.16652049  0.69726221    -0.09800
C2          C  0.70318985  0.14001994  0.68667031    -0.03700
C3          C  0.71709561  0.11323440  0.69087534    -0.09800
C4          C  0.74179289  0.11221581  0.70802639     0.11100
C5          C  0.75324010  0.13889823  0.71896638    -0.01600
C6          C  0.73964988  0.16631124  0.71307760     0.10900
C7          C  0.75200844  0.19250234  0.72310282    -0.11600
C8          C  0.77736707  0.19184731  0.73864006    -0.11600
C9          C  0.79090209  0.16495468  0.74494120     0.10900
C10         C  0.77865296  0.13818339  0.73523142    -0.01600
C11         C  0.75526213  0.08531411  0.71445145    -0.11800
C12         C  0.77958168  0.08450303  0.73166489    -0.11800
C13         C  0.79166310  0.11065852  0.74202016     0.11100
C14         C  0.81654555  0.11026558  0.75894097    -0.09800
C15         C  0.82879911  0.13673202  0.76730203    -0.03700
C16         C  0.81644703  0.16385339  0.76070191    -0.09800
H17         H  0.74214030  0.21366642  0.71892910     0.08400
H18         H  0.78627211  0.21254108  0.74582784     0.08400
H19         H  0.74676402  0.06466720  0.70659836     0.08600
H20         H  0.78916803  0.06330329  0.73639498     0.08600
H21         H  0.68438925  0.14053183  0.67299260     0.05000
H22         H  0.84795497  0.13617304  0.78043026     0.05000
Zr23       Zr  0.53307530  0.29075990  0.42011716     2.17500
O24         O  0.54269205  0.31429892  0.37204635    -0.50300
O25         O  0.53213496  0.34381378  0.43229183    -0.73500
O26         O  0.49063521  0.29437331  0.38880274    -0.80300
O27         O  0.61107098  0.26452463  0.42922053    -0.82100
O28         O  0.45467636  0.27011789  0.41124131    -0.77700
O29         O  0.57982793  0.28546473  0.39705820    -0.89300
O30         O  0.52345795  0.34660510  0.48200074    -0.75300
O31         O  0.49744049  0.29293657  0.45749479    -0.84800
O32         O  0.55741074  0.29604372  0.46648604    -0.84500
O33         O  0.50818991  0.24455212  0.41704261    -0.71200
O34         O  0.56125224  0.24768736  0.42769899    -0.83400
Zr35       Zr  0.52480336  0.20863760  0.50874515     2.26400
Zr36       Zr  0.47330313  0.24664164  0.45565429     2.06300
Zr37       Zr  0.58518166  0.25228451  0.47396316     2.10000
Zr38       Zr  0.52167748  0.29785924  0.50356179     1.78800
O39         O  0.62261179  0.21576434  0.47003773    -0.92200
O40         O  0.47782289  0.32088974  0.51915549    -0.40000
O41         O  0.54940692  0.25463196  0.51082905    -0.76600
O42         O  0.49615418  0.25262477  0.50293596    -0.95300
O43         O  0.50153218  0.20329906  0.46197388    -0.88600
O44         O  0.56084843  0.20616876  0.47184831    -0.91400
C45         C  0.52791410  0.35849833  0.45643167     1.02300
C46         C  0.60454744  0.27572124  0.40379405     1.15300
C47         C  0.46497431  0.28552499  0.38981521     1.06000
O48         O  0.43156987  0.27538362  0.46764798    -0.93600
O49         O  0.44605949  0.22338818  0.49492283    -0.89300
O50         O  0.47681675  0.20242541  0.52752403    -0.82500
C51         C  0.45182331  0.20944851  0.51919871     1.12700
O52         O  0.54816464  0.20353135  0.37169237    -0.95600
Zr53       Zr  0.53738592  0.20218433  0.42495812     1.88900
O54         O  0.52898988  0.15575688  0.49544007    -0.72200
O55         O  0.44710567  0.20819065  0.43038363    -0.51500
O56         O  0.50141398  0.17800989  0.39537032    -0.96100
O57         O  0.58337322  0.18255027  0.41147014    -0.53400
O58         O  0.53475681  0.15326022  0.44520586    -0.72700
C59         C  0.53184831  0.14122667  0.47092142     0.99600
O60         O  0.52424875  0.18331731  0.55699645    -0.61500
O61         O  0.61785676  0.29028565  0.48990116    -0.56300
O62         O  0.56272745  0.21436636  0.54567115    -0.93000
O63         O  0.59828238  0.24076589  0.52495202    -0.91500
O64         O  0.55961648  0.32164294  0.53053880    -0.91800
O65         O  0.51459323  0.29734422  0.55742877    -0.90600
C66         C  0.58689781  0.22699242  0.54692193     1.18500
H67         H  0.56903928  0.31341031  0.46660851     0.34400
H68         H  0.48285755  0.25495590  0.51901355     0.45300
H69         H  0.57332623  0.18974301  0.47562124     0.38800
H70         H  0.49988974  0.24173542  0.39762479     0.35300
H71         H  0.48309831  0.34102098  0.52539538     0.27100
H72         H  0.42736161  0.21501030  0.43108688     0.33000
H73         H  0.49029481  0.16642979  0.40994525     0.38900
H74         H  0.55268038  0.34184420  0.53455486     0.33400
H75         H  0.63561402  0.27960700  0.49395062     0.32200
H76         H  0.64015687  0.22725123  0.47144683     0.33900
H77         H  0.58831466  0.16846634  0.42760348     0.32900
H78         H  0.51610761  0.27628207  0.56316410     0.36900
H79         H  0.51247944  0.19564730  0.57027583     0.29600
H80         H  0.52972177  0.33136447  0.37081662     0.33900
H81         H  0.54885549  0.18267891  0.36529306     0.36700
H82         H  0.62181649  0.30223077  0.47181858     0.29300
H83         H  0.51322472  0.16515694  0.55385241     0.42200
H84         H  0.43687031  0.29609821  0.46359720     0.32200
H85         H  0.46712889  0.32388776  0.50044399     0.39900
H86         H  0.59642316  0.19924241  0.41418322     0.31700
H87         H  0.45248368  0.21002706  0.40908906     0.31800
H88         H  0.53591131  0.30035841  0.35674612     0.32000
Zr89       Zr  0.53080604  0.45919923  0.41951155     2.17500
O90         O  0.52592733  0.43716508  0.37015613    -0.50300
O91         O  0.53008699  0.40605217  0.43188547    -0.73500
O92         O  0.57492864  0.45476741  0.39281298    -0.80300
O93         O  0.45359190  0.48665137  0.41621458    -0.82100
O94         O  0.61041107  0.47440756  0.42007985    -0.77700
O95         O  0.48762967  0.46246164  0.39056049    -0.89300
O96         O  0.52814223  0.40293603  0.48238754    -0.75300
O97         O  0.56128172  0.45461208  0.46142659    -0.84800
O98         O  0.50048064  0.45524592  0.46163565    -0.84500
O99         O  0.55866655  0.00414662  0.41971969    -0.71200
O100        O  0.50471886  0.00462457  0.41994257    -0.83400
Zr101      Zr  0.53132658  0.04017754  0.50706018     2.26400
Zr102      Zr  0.58838858  0.49905963  0.46260156     2.06300
Zr103      Zr  0.47437130  0.50054664  0.46332501     2.10000
Zr104      Zr  0.53101027  0.45150034  0.50355114     1.78800
O105        O  0.44052710  0.04032327  0.45093057    -0.92200
O106        O  0.57110218  0.42402791  0.52305257    -0.40000
O107        O  0.50471925  0.49607977  0.50525416    -0.76600
O108        O  0.55903490  0.49507775  0.50616555    -0.95300
O109        O  0.56180040  0.04400957  0.46489516    -0.88600
O110        O  0.50123779  0.04563166  0.46471113    -0.91400
C111        C  0.52876473  0.39121358  0.45645253     1.02300
C112        C  0.46276497  0.47325198  0.39298232     1.15300
C113        C  0.60075289  0.46130829  0.39687363     1.06000
O114        O  0.62476246  0.46626438  0.48177945    -0.93600
O115        O  0.61088281  0.02073670  0.50594475    -0.89300
O116        O  0.57675548  0.04436367  0.53211066    -0.82500
C117        C  0.60233758  0.03602148  0.52828603     1.12700
O118        O  0.53071635  0.04956663  0.36825199    -0.95600
Zr119      Zr  0.53179903  0.04859889  0.42271826     1.88900
O120        O  0.52979697  0.09340562  0.49498301    -0.72200
O121        O  0.62266704  0.03405676  0.44485031    -0.51500
O122        O  0.57376147  0.07080202  0.40127155    -0.96100
O123        O  0.49074865  0.07249426  0.40071833    -0.53400
O124        O  0.53328202  0.09697283  0.44459225    -0.72700
C125        C  0.53167531  0.10847531  0.47061261     0.99600
O126        O  0.52724503  0.06440109  0.55544585    -0.61500
O127        O  0.43762486  0.46459357  0.47315555    -0.56300
O128        O  0.48878094  0.03481648  0.53786391    -0.93000
O129        O  0.45478105  0.01294100  0.51030834    -0.91500
O130        O  0.48890715  0.43236984  0.52756564    -0.91800
O131        O  0.53316118  0.45178897  0.55790001    -0.90600
C132        C  0.46386726  0.02435356  0.53458215     1.18500
H133        H  0.48810114  0.43852253  0.46006450     0.34400
H134        H  0.56999177  0.49260213  0.52412057     0.45300
H135        H  0.48928548  0.06278690  0.46647568     0.38800
H136        H  0.56952665  0.00710248  0.40177393     0.35300
H137        H  0.56289179  0.40667893  0.53328735     0.27100
H138        H  0.64101909  0.02482642  0.44950485     0.33000
H139        H  0.58402134  0.07901346  0.41851503     0.38900
H140        H  0.49135651  0.41068994  0.52764412     0.33400
H141        H  0.44336614  0.45465221  0.49192863     0.32200
H142        H  0.42234137  0.03264780  0.45821493     0.33900
H143        H  0.48487623  0.08763269  0.41531153     0.32900
H144        H  0.52484926  0.47099410  0.56361369     0.36900
H145        H  0.53600951  0.05074568  0.57007085     0.29600
H146        H  0.53842615  0.41968178  0.37008299     0.33900
H147        H  0.53267573  0.07055624  0.36243465     0.36700
H148        H  0.42096152  0.47645412  0.47872757     0.29300
H149        H  0.53997560  0.08156585  0.55449168     0.42200
H150        H  0.61816201  0.46056709  0.50197446     0.32200
H151        H  0.58052232  0.41575101  0.50522077     0.39900
H152        H  0.47583384  0.05740099  0.40170906     0.31700
H153        H  0.62131883  0.03333743  0.42280287     0.31800
H154        H  0.53452427  0.45122652  0.35584965     0.32000
C155        C  0.31030721  0.13500824  0.65653516    -0.09800
C156        C  0.32434317  0.10859450  0.65104657    -0.03700
C157        C  0.31602204  0.08210751  0.66410257    -0.09800
C158        C  0.29270480  0.08161465  0.68339887     0.11100
C159        C  0.27835439  0.10844197  0.68964692    -0.01600
C160        C  0.28731262  0.13538321  0.67638824     0.10900
C161        C  0.27320345  0.16169756  0.68344216    -0.11600
C162        C  0.25088815  0.16170830  0.70368164    -0.11600
C163        C  0.24151188  0.13528267  0.71668367     0.10900
C164        C  0.25501191  0.10830055  0.70916029    -0.01600
C165        C  0.28334126  0.05520441  0.69642753    -0.11800
C166        C  0.25990537  0.05496941  0.71504515    -0.11800
C167        C  0.24548106  0.08121483  0.72153958     0.11100
C168        C  0.22175705  0.08133725  0.74024232    -0.09800
C169        C  0.20892482  0.10794331  0.74762911    -0.03700
C170        C  0.21888639  0.13483326  0.73700367    -0.09800
H171        H  0.27962402  0.18248359  0.67365091     0.08400
H172        H  0.24073636  0.18247742  0.70880990     0.08400
H173        H  0.29394518  0.03451344  0.69205280     0.08600
H174        H  0.25317329  0.03409781  0.72439972     0.08600
H175        H  0.34219972  0.10860617  0.63592375     0.05000
H176        H  0.19147330  0.10779722  0.76328427     0.05000
Zr177      Zr  0.03514325  0.29066843  0.00787459     2.17500
O178        O  0.03336368  0.31700441  0.05522915    -0.50300
O179        O  0.03285895  0.34402516  0.99604387    -0.73500
O180        O  0.08120878  0.29149766  0.03212069    -0.80300
O181        O  0.95610602  0.27569843  0.00940458    -0.82100
O182        O  0.11360187  0.26725501  0.00421890    -0.77700
O183        O  0.99328969  0.28597433  0.03924363    -0.89300
O184        O  0.03427633  0.34768743  0.94556518    -0.75300
O185        O  0.06516181  0.29272125  0.96522890    -0.84800
O186        O  0.00459647  0.29724437  0.96621881    -0.84500
O187        O  0.05957211  0.24379109  0.00659804    -0.71200
O188        O  0.00533967  0.24819755  0.00657419    -0.83400
Zr189      Zr  0.02905866  0.20972674  0.91947875     2.26400
Zr190      Zr  0.08852516  0.24571429  0.96271105     2.06300
Zr191      Zr  0.97552458  0.25441680  0.96440080     2.10000
Zr192      Zr  0.03454450  0.29897656  0.92380161     1.78800
O193        O  0.93981847  0.21991418  0.98138654    -0.92200
O194        O  0.07702293  0.32136057  0.90371932    -0.40000
O195        O  0.00518075  0.25648936  0.92158198    -0.76600
O196        O  0.05879983  0.25290423  0.92005919    -0.95300
O197        O  0.05914676  0.20300932  0.96142680    -0.88600
O198        O  0.99896986  0.20760860  0.96211751    -0.91400
C199        C  0.03294762  0.35920333  0.97164739     1.02300
C200        C  0.96687766  0.28242809  0.03466903     1.15300
C201        C  0.10632677  0.28208646  0.02731913     1.06000
O202        O  0.12719899  0.27477852  0.94297232    -0.93600
O203        O  0.10917691  0.22257671  0.91914405    -0.89300
O204        O  0.07346488  0.20230636  0.89289379    -0.82500
C205        C  0.09945653  0.20887032  0.89642628     1.12700
O206        O  0.03002017  0.20160375  0.05856214    -0.95600
Zr207      Zr  0.02931373  0.20207303  0.00408343     1.88900
O208        O  0.02565338  0.15672213  0.93257420    -0.72200
O209        O  0.11903425  0.20667463  0.98161050    -0.51500
O210        O  0.07017658  0.17647518  0.02434380    -0.96100
O211        O  0.98733506  0.18169647  0.02740216    -0.53400
O212        O  0.02654691  0.15357717  0.98312909    -0.72700
C213        C  0.02554798  0.14188640  0.95721629     0.99600
O214        O  0.02321411  0.18636947  0.87088192    -0.61500
O215        O  0.93958183  0.28923464  0.94788181    -0.56300
O216        O  0.98578829  0.21556284  0.89040603    -0.93000
O217        O  0.95365605  0.24012307  0.91831831    -0.91500
O218        O  0.99421243  0.32383912  0.90165329    -0.91800
O219        O  0.03520526  0.29958608  0.86939889    -0.90600
C220        C  0.96133617  0.22709478  0.89434542     1.18500
H221        H  0.99313773  0.31473471  0.96804242     0.34400
H222        H  0.06945700  0.25502906  0.90184177     0.45300
H223        H  0.98570647  0.19165683  0.96056912     0.38800
H224        H  0.07048196  0.24020291  0.02438491     0.35300
H225        H  0.07062044  0.34010522  0.89451056     0.27100
H226        H  0.13826908  0.21373273  0.97739777     0.33000
H227        H  0.07790181  0.16502412  0.00743881     0.38900
H228        H  0.97896126  0.30911396  0.90251047     0.33400
H229        H  0.92172890  0.28113588  0.95564281     0.32200
H230        H  0.92244313  0.23183313  0.98300529     0.33900
H231        H  0.97809703  0.17008684  0.01159126     0.32900
H232        H  0.02293402  0.28303171  0.86358193     0.36900
H233        H  0.03240255  0.19957943  0.85617852     0.29600
H234        H  0.04704336  0.33326190  0.05329350     0.33900
H235        H  0.03023838  0.18054181  0.06451799     0.36700
H236        H  0.94268559  0.30728448  0.95970563     0.29300
H237        H  0.03501319  0.16835498  0.87139319     0.42200
H238        H  0.12017858  0.28275067  0.92374794     0.32200
H239        H  0.08778174  0.32755118  0.92149335     0.39900
H240        H  0.97480972  0.19889747  0.03040971     0.31700
H241        H  0.11724799  0.20767789  0.00361488     0.31800
H242        H  0.04160551  0.30340241  0.07023623     0.32000
Zr243      Zr  0.02596576  0.45970379  0.01018142     2.17500
O244        O  0.02959061  0.43484746  0.05853999    -0.50300
O245        O  0.02994627  0.40662637  0.99669824    -0.73500
O246        O  0.98011903  0.45537669  0.03598370    -0.80300
O247        O  0.10234573  0.48883976  0.01247050    -0.82100
O248        O  0.94640901  0.47680302  0.00727751    -0.77700
O249        O  0.06950484  0.46428951  0.03971770    -0.89300
O250        O  0.02938890  0.40402858  0.94612598    -0.75300
O251        O  0.99604746  0.45545106  0.96773163    -0.84800
O252        O  0.05621574  0.45673843  0.96762336    -0.84500
O253        O  0.99901767  0.00407818  0.00780120    -0.71200
O254        O  0.05323396  0.00505085  0.00708433    -0.83400
Zr255      Zr  0.02486685  0.04142360  0.92002541     2.26400
Zr256      Zr  0.96884461  0.50003879  0.96540760     2.06300
Zr257      Zr  0.08163372  0.50214055  0.96504941     2.10000
Zr258      Zr  0.02612779  0.45287651  0.92545394     1.78800
O259        O  0.11865456  0.03895837  0.97491660    -0.92200
O260        O  0.98416798  0.42890872  0.90651826    -0.40000
O261        O  0.05175789  0.49779333  0.92288084    -0.76600
O262        O  0.99777268  0.49616040  0.92184642    -0.95300
O263        O  0.99503725  0.04469900  0.96258655    -0.88600
O264        O  0.05523238  0.04621986  0.96213756    -0.91400
C265        C  0.03068273  0.39201526  0.97200911     1.02300
C266        C  0.09414886  0.47557579  0.03628328     1.15300
C267        C  0.95447118  0.46315939  0.03083739     1.06000
O268        O  0.93328521  0.46516773  0.94946092    -0.93600
O269        O  0.94636646  0.02046560  0.92169958    -0.89300
O270        O  0.97969856  0.04318128  0.89374095    -0.82500
C271        C  0.95437310  0.03446235  0.89826122     1.12700
O272        O  0.02571104  0.04608090  0.05912675    -0.95600
Zr273      Zr  0.02525299  0.04860932  0.00468659     1.88900
O274        O  0.02526387  0.09440704  0.93290465    -0.72200
O275        O  0.93604337  0.03430682  0.98327086    -0.51500
O276        O  0.98366113  0.07160578  0.02626826    -0.96100
O277        O  0.06578927  0.07272209  0.02679610    -0.53400
O278        O  0.02411607  0.09736320  0.98343393    -0.72700
C279        C  0.02470384  0.10916299  0.95739689     0.99600
O280        O  0.02802411  0.06910155  0.87322149    -0.61500
O281        O  0.11734015  0.46577980  0.95190283    -0.56300
O282        O  0.06707034  0.03707432  0.88897151    -0.93000
O283        O  0.10225976  0.01710848  0.91677935    -0.91500
O284        O  0.06587925  0.42852392  0.90179103    -0.91800
O285        O  0.02693622  0.45462641  0.87108375    -0.90600
C286        C  0.09247335  0.02790379  0.89236317     1.18500
H287        H  0.06888573  0.44014753  0.96916034     0.33600
H288        H  0.98707124  0.49294986  0.90390844     0.45300
H289        H  0.06705696  0.06336486  0.96028738     0.38800
H290        H  0.98790891  0.00688939  0.02558824     0.35300
H291        H  0.99127100  0.41155399  0.89548490     0.27100
H292        H  0.91765903  0.02463429  0.98053008     0.33000
H293        H  0.97354999  0.08041551  0.00908060     0.38900
H294        H  0.08195876  0.44167832  0.90568409     0.33400
H295        H  0.13516126  0.47688922  0.95172409     0.32200
H296        H  0.13662704  0.02795164  0.97445801     0.33900
H297        H  0.07347115  0.08556065  0.01084262     0.32900
H298        H  0.03503949  0.47412760  0.86616883     0.36900
H299        H  0.02075481  0.05579840  0.85760219     0.29600
H300        H  0.01665065  0.41786954  0.05754334     0.33900
H301        H  0.02443088  0.06675317  0.06599776     0.36700
H302        H  0.11891902  0.45253462  0.96947761     0.29300
H303        H  0.01387170  0.08506978  0.87471223     0.42200
H304        H  0.93738138  0.46161376  0.92809968     0.32200
H305        H  0.97490811  0.42042140  0.92439525     0.39900
H306        H  0.07992120  0.05681788  0.02914154     0.31700
H307        H  0.93899612  0.03445298  0.00515004     0.31800
H308        H  0.02098155  0.44844133  0.07319835     0.32000
C309        C  0.34398209  0.41572414  0.22997971    -0.09800
C310        C  0.35744319  0.38894332  0.23568515    -0.03700
C311        C  0.34496113  0.36204334  0.22915871    -0.09800
C312        C  0.31919871  0.36174909  0.21364179     0.11100
C313        C  0.30557715  0.38892847  0.20677116    -0.01600
C314        C  0.31781758  0.41604977  0.21537349     0.10900
C315        C  0.30350917  0.44260789  0.20951516    -0.11600
C316        C  0.27739490  0.44260136  0.19549565    -0.11600
C317        C  0.26483513  0.41603447  0.18690697     0.10900
C318        C  0.27912613  0.38892339  0.19242284    -0.01600
C319        C  0.30674934  0.33519441  0.20488432    -0.11800
C320        C  0.28133748  0.33525277  0.18944958    -0.11800
C321        C  0.26711638  0.36180600  0.18335523     0.11100
C322        C  0.24102819  0.36212625  0.16859153    -0.09800
C323        C  0.22675910  0.38869475  0.16453902    -0.03700
C324        C  0.23823243  0.41558037  0.17308642    -0.09800
H325        H  0.31248507  0.46357418  0.21575209     0.08400
H326        H  0.26699555  0.46353133  0.19156472     0.08400
H327        H  0.31685697  0.31424844  0.20955290     0.08600
H328        H  0.27255163  0.31430499  0.18286892     0.08600
H329        H  0.37670722  0.38897179  0.24863552     0.05000
H330        H  0.20689467  0.38861690  0.15267318     0.05000
C331        C  0.72448914  0.37993384  0.24508862    -0.09800
C332        C  0.71635205  0.35247453  0.25611731    -0.03700
C333        C  0.73152714  0.32687514  0.25009185    -0.09800
C334        C  0.75560783  0.32822725  0.23199020     0.11100
C335        C  0.76398707  0.35587656  0.22005979    -0.01600
C336        C  0.74846572  0.38192400  0.22670561     0.10900
C337        C  0.75716055  0.40901582  0.21464645    -0.11600
C338        C  0.78064173  0.41057725  0.19620229    -0.11600
C339        C  0.79624910  0.38513295  0.18951419     0.10900
C340        C  0.78813031  0.35754099  0.20178881    -0.01600
C341        C  0.77151139  0.30286289  0.22569503    -0.11800
C342        C  0.79551917  0.30457123  0.20798526    -0.11800
C343        C  0.80411641  0.33163876  0.19579411     0.11100
C344        C  0.82841317  0.33383039  0.17790891    -0.09800
C345        C  0.83549962  0.36099933  0.16535449    -0.03700
C346        C  0.81980347  0.38637507  0.17071137    -0.09800
H347        H  0.74563150  0.42913440  0.21908864     0.08400
H348        H  0.78651983  0.43188159  0.18720056     0.08400
H349        H  0.76549980  0.28153175  0.23452426     0.08600
H350        H  0.80730510  0.28454283  0.20388426     0.08600
H351        H  0.69841833  0.35113779  0.27106374     0.05000
H352        H  0.85367049  0.36242841  0.15074114     0.05000
C353        C  0.87029850  0.44339746  0.14769160     0.13700
C354        C  0.86625406  0.44215626  0.11668607     0.00600
C355        C  0.84139405  0.43015357  0.10528862     0.15600
C356        C  0.82278202  0.41577049  0.12446698     0.25000
C357        C  0.82918118  0.41306808  0.15494358    -0.41300
C358        C  0.85177600  0.42880528  0.16682755     0.32100
C359        C  0.88962240  0.44879886  0.09625805     0.00700
F360        F  0.83681201  0.42935306  0.07537147    -0.13600
F361        F  0.85781377  0.42682369  0.19639702    -0.14100
C362        C  0.91350646  0.43047290  0.09595702     0.15600
C363        C  0.93491768  0.43512767  0.07503077     0.25000
C364        C  0.93255383  0.45803878  0.05386968    -0.41200
C365        C  0.90858471  0.47659664  0.05475609     0.32000
C366        C  0.88735768  0.47187236  0.07564929     0.13700
F367        F  0.91550741  0.40732933  0.11523040    -0.13600
F368        F  0.90561133  0.49966334  0.03557917    -0.14100
F369        F  0.95735279  0.41660657  0.07484000    -0.16400
F370        F  0.86444752  0.48977444  0.07569155    -0.15000
F371        F  0.89348511  0.45641640  0.15908999    -0.15000
F372        F  0.80065353  0.40101677  0.11282887    -0.16400
C373        C  0.20772510  0.46617485  0.11710885     0.13700
C374        C  0.17985829  0.46704828  0.12756958     0.00600
C375        C  0.17442968  0.45952584  0.15752786     0.15600
C376        C  0.19555947  0.44691170  0.17515619     0.25000
C377        C  0.22239582  0.44196800  0.16308481    -0.41300
C378        C  0.22892572  0.45388965  0.13492395     0.32100
C379        C  0.15627711  0.47075044  0.10616382     0.00700
F380        F  0.14802870  0.46175953  0.16872516    -0.13600
F381        F  0.25480071  0.44956256  0.12296417    -0.14100
C382        C  0.13671295  0.44782766  0.10252285     0.15600
C383        C  0.11586957  0.44970055  0.08054746     0.25000
C384        C  0.11450343  0.47429053  0.06135948    -0.41200
C385        C  0.13376899  0.49748630  0.06546602     0.32000
C386        C  0.15434366  0.49574977  0.08768894     0.13700
F387        F  0.13866365  0.42287399  0.11931147    -0.13600
F388        F  0.13266595  0.52202115  0.04797601    -0.14100
F389        F  0.09799692  0.42676652  0.07706302    -0.16400
F390        F  0.17251787  0.51844423  0.09104573    -0.15000
F391        F  0.21383008  0.47380954  0.08846972    -0.15000
F392        F  0.18886760  0.43579844  0.20246262    -0.16400
C393        C  0.93473709  0.26893833  0.11072933     0.13700
C394        C  0.90851862  0.28289220  0.10755792     0.00600
C395        C  0.90231392  0.29795477  0.08076419     0.15600
C396        C  0.92153710  0.29828678  0.05725186     0.25000
C397        C  0.94763995  0.28421109  0.06032543    -0.41300
C398        C  0.95420488  0.26967042  0.08728452     0.32100
C399        C  0.88843668  0.28476145  0.13275657     0.00700
F400        F  0.87793612  0.31328362  0.07774038    -0.13600
F401        F  0.97904161  0.25523290  0.09047988    -0.14100
C402        C  0.89627810  0.29961413  0.15885519     0.15600
C403        C  0.87571025  0.31137220  0.17760695     0.25000
C404        C  0.84718671  0.30897461  0.17006072    -0.41200
C405        C  0.83938582  0.29009439  0.14679916     0.32000
C406        C  0.85999549  0.27783221  0.12830175     0.13700
F407        F  0.92355069  0.30645915  0.16390336    -0.13600
F408        F  0.81195737  0.28700121  0.13940796    -0.14100
F409        F  0.88364173  0.32927723  0.20025331    -0.16400
F410        F  0.85205791  0.26220764  0.10397248    -0.15000
F411        F  0.94138603  0.25445188  0.13639166    -0.15000
F412        F  0.91488190  0.31291965  0.03165603    -0.16400
C413        C  0.17299031  0.27570175  0.07386456     0.13700
C414        C  0.16874203  0.29784059  0.09515093     0.00600
C415        C  0.14366336  0.31421580  0.09460918     0.15600
C416        C  0.12346206  0.30910470  0.07269992     0.25000
C417        C  0.12794797  0.28757572  0.05058217    -0.41300
C418        C  0.15292288  0.27065624  0.05169484     0.32100
C419        C  0.19148564  0.30637890  0.11582391     0.00700
F420        F  0.13918590  0.33612832  0.11462496    -0.13600
F421        F  0.15799105  0.24900992  0.03154556    -0.14100
C422        C  0.21651157  0.31800150  0.10413390     0.15600
C423        C  0.23511111  0.33293675  0.12270724     0.25000
C424        C  0.22888713  0.33653693  0.15313429    -0.41200
C425        C  0.20535102  0.32243053  0.16538777     0.32000
C426        C  0.18679345  0.30725828  0.14683797     0.13700
F427        F  0.22147929  0.31765507  0.07425808    -0.13600
F428        F  0.19899391  0.32580580  0.19474281    -0.14100
F429        F  0.25742716  0.34700437  0.11036666    -0.16400
F430        F  0.16324732  0.29523563  0.15876343    -0.15000
F431        F  0.19668860  0.25900279  0.07454691    -0.15000
F432        F  0.09988000  0.32596733  0.07276171    -0.16400
C433        C  0.13271609  0.17257311  0.82888628     0.13700
C434        C  0.15429509  0.19256240  0.82180337     0.00600
C435        C  0.15831796  0.21722002  0.84004704     0.15600
C436        C  0.14101868  0.22195118  0.86482205     0.25000
C437        C  0.11909181  0.20225311  0.87166945    -0.41300
C438        C  0.11506374  0.17755920  0.85334326     0.32100
C439        C  0.17314786  0.18672012  0.79610340     0.00700
F440        F  0.17860750  0.23713942  0.83345979    -0.13600
F441        F  0.09429570  0.15799089  0.85931767    -0.14100
C442        C  0.16183521  0.18107736  0.76772176     0.15600
C443        C  0.17842101  0.16807720  0.74559875     0.25000
C444        C  0.20660236  0.16107746  0.75143364    -0.41200
C445        C  0.21884753  0.17063015  0.77819070     0.32000
C446        C  0.20215975  0.18307054  0.80058734     0.13700
F447        F  0.13416414  0.18585042  0.76232947    -0.13600
F448        F  0.24605723  0.16399815  0.78427129    -0.14100
F449        F  0.16617444  0.15886964  0.71995805    -0.16400
F450        F  0.21375189  0.18838569  0.82770547    -0.15000
F451        F  0.12906977  0.14783182  0.81241948    -0.15000
F452        F  0.14502269  0.24656644  0.88134366    -0.16400
C453        C  0.12833457  0.04960634  0.81990879     0.13700
C454        C  0.14925889  0.02770909  0.81786736     0.00600
C455        C  0.15046278  0.00528403  0.83941620     0.15600
C456        C  0.13171431  0.00526931  0.86335547     0.25000
C457        C  0.11141351  0.02781607  0.86621395    -0.41300
C458        C  0.10943721  0.04959532  0.84383334     0.32100
C459        C  0.17170774  0.03065829  0.79537989     0.00700
F460        F  0.17011136  0.98362372  0.83746028    -0.13600
F461        F  0.09010514  0.07157725  0.84575430    -0.14100
C462        C  0.19902661  0.03741944  0.80481400     0.15600
C463        C  0.21818877  0.04946250  0.78461973     0.25000
C464        C  0.21002498  0.05510655  0.75503885    -0.41200
C465        C  0.18423513  0.04439545  0.74471530     0.32000
C466        C  0.16507818  0.03220181  0.76487089     0.13700
F467        F  0.20588476  0.03612695  0.83422822    -0.13600
F468        F  0.17608416  0.04973305  0.71613972    -0.14100
F469        F  0.24294523  0.05997654  0.79496125    -0.16400
F470        F  0.13906063  0.02483369  0.75524163    -0.15000
F471        F  0.12713191  0.07186548  0.79951652    -0.15000
F472        F  0.13331922  0.98296385  0.88363861    -0.16400
C473        C  0.66201232  0.43268607  0.35173573     0.13700
C474        C  0.65525890  0.44313633  0.32285592     0.00600
C475        C  0.63055914  0.45966438  0.31878986     0.15600
C476        C  0.61280242  0.46523608  0.34298612     0.25000
C477        C  0.61988337  0.45523580  0.37184099    -0.41300
C478        C  0.64472930  0.43921744  0.37612282     0.32100
C479        C  0.67309975  0.43486095  0.29699582     0.00700
F480        F  0.62364807  0.47048405  0.29141626    -0.13600
F481        F  0.65156530  0.42876399  0.40365013    -0.14100
C482        C  0.66147354  0.41966834  0.27268272     0.15600
C483        C  0.67895302  0.40555186  0.25215050     0.25000
C484        C  0.70817004  0.40546694  0.25625176    -0.41200
C485        C  0.71984925  0.42357609  0.27829414     0.32000
C486        C  0.70236376  0.43855705  0.29828087     0.13700
F487        F  0.63334779  0.41562561  0.27060322    -0.13600
F488        F  0.74800989  0.42401093  0.28269459    -0.14100
F489        F  0.66731566  0.38860203  0.23058951    -0.16400
F490        F  0.71404210  0.45468937  0.32044573    -0.15000
F491        F  0.68475377  0.41507950  0.35613882    -0.15000
F492        F  0.58878997  0.48081134  0.33831956    -0.16400
C493        C  0.40611488  0.49135737  0.33630101     0.13700
C494        C  0.40962937  0.46843256  0.31576117     0.00600
C495        C  0.43070311  0.44718740  0.32054206     0.15600
C496        C  0.44785789  0.44864557  0.34568251     0.25000
C497        C  0.44410030  0.47128529  0.36672003    -0.41300
C498        C  0.42320218  0.49284310  0.36158479     0.32100
C499        C  0.38977898  0.46467275  0.29086334     0.00700
F500        F  0.43402034  0.42433571  0.30136122    -0.13600
F501        F  0.41972192  0.51580942  0.38057402    -0.14100
C502        C  0.39964826  0.46276125  0.26134454     0.15600
C503        C  0.38253584  0.45097931  0.23913442     0.25000
C504        C  0.35548835  0.44101870  0.24634565    -0.41200
C505        C  0.34451970  0.44642544  0.27493481     0.32000
C506        C  0.36165883  0.45796082  0.29717796     0.13700
F507        F  0.42667733  0.46956494  0.25476464    -0.13600
F508        F  0.31875234  0.43614645  0.28254898    -0.14100
F509        F  0.39353983  0.44564361  0.21169038    -0.16400
F510        F  0.35190085  0.45892474  0.32567676    -0.15000
F511        F  0.38615944  0.51234204  0.33175281    -0.15000
F512        F  0.46768246  0.42742197  0.34972535    -0.16400
C513        C  0.40425138  0.00210229  0.58570604     0.13700
C514        C  0.40267651  0.02621416  0.60510632     0.00600
C515        C  0.42335077  0.04829621  0.60328422     0.15600
C516        C  0.44422580  0.04708868  0.58128345     0.25000
C517        C  0.44442516  0.02410037  0.56038819    -0.41300
C518        C  0.42481858  0.00108371  0.56350634     0.32100
C519        C  0.37759967  0.03062829  0.62423184     0.00700
F520        F  0.42222988  0.07212816  0.62146943    -0.13600
F521        F  0.42531891  0.97763380  0.54479994    -0.14100
C522        C  0.38045157  0.03771365  0.65461810     0.15600
C523        C  0.35794608  0.05032572  0.67013785     0.25000
C524        C  0.33253601  0.05599590  0.65534650    -0.41200
C525        C  0.32846617  0.04493281  0.62650700     0.32000
C526        C  0.35089497  0.03246132  0.61091642     0.13700
F527        F  0.40567252  0.03487666  0.66839637    -0.13600
F528        F  0.30396284  0.05020661  0.61195518    -0.14100
F529        F  0.36199170  0.06037245  0.69830366    -0.16400
F530        F  0.34729410  0.02567095  0.58167300    -0.15000
F531        F  0.38526043  0.97995250  0.58766004    -0.15000
F532        F  0.46306608  0.06936890  0.57927605    -0.16400
C533        C  0.64552368  0.29582709  0.33425768     0.13700
C534        C  0.66694374  0.27438944  0.33436731     0.00600
C535        C  0.66829880  0.25382867  0.35777455     0.15600
C536        C  0.64813589  0.25432390  0.38052372     0.25000
C537        C  0.62647607  0.27574958  0.38034681    -0.41300
C538        C  0.62550735  0.29650508  0.35697454     0.32100
C539        C  0.68849784  0.27528966  0.31068715     0.00700
F540        F  0.68889829  0.23306789  0.35834690    -0.13600
F541        F  0.60556748  0.31795580  0.35641186    -0.14100
C542        C  0.71595932  0.28393640  0.31771246     0.15600
C543        C  0.73297622  0.29635610  0.29558607     0.25000
C544        C  0.72243702  0.30044966  0.26659299    -0.41200
C545        C  0.69684632  0.28750664  0.25867579     0.32000
C546        C  0.68007278  0.27457629  0.28065123     0.13700
F547        F  0.72482052  0.28420478  0.34651623    -0.13600
F548        F  0.68625078  0.29151558  0.23080338    -0.14100
F549        F  0.75767652  0.30887061  0.30350800    -0.16400
F550        F  0.65408083  0.26489390  0.27332948    -0.15000
F551        F  0.64440966  0.31669699  0.31240538    -0.15000
F552        F  0.64944160  0.23331687  0.40221697    -0.16400
C553        C  0.43242776  0.32332943  0.32195571     0.13700
C554        C  0.41053269  0.30386297  0.31479491     0.00600
C555        C  0.40656552  0.27861019  0.33244823     0.15600
C556        C  0.42401453  0.27290170  0.35692959     0.25000
C557        C  0.44614831  0.29223254  0.36412882    -0.41300
C558        C  0.45020571  0.31746042  0.34620324     0.32100
C559        C  0.39127210  0.31071338  0.28962729     0.00700
F560        F  0.38601239  0.25915738  0.32564113    -0.13600
F561        F  0.47089920  0.33689386  0.35256829    -0.14100
C562        C  0.40196220  0.31536464  0.26071350     0.15600
C563        C  0.38504587  0.32801226  0.23851755     0.25000
C564        C  0.35726715  0.33630873  0.24499844    -0.41200
C565        C  0.34563619  0.32827770  0.27274955     0.32000
C566        C  0.36252577  0.31554325  0.29494405     0.13700
F567        F  0.42930991  0.30947556  0.25460336    -0.13600
F568        F  0.31896566  0.33637210  0.27970698    -0.14100
F569        F  0.39663027  0.33528968  0.21177344    -0.16400
F570        F  0.35144867  0.31070339  0.32249470    -0.15000
F571        F  0.43615958  0.34848917  0.30587528    -0.15000
F572        F  0.41957895  0.24794688  0.37310179    -0.16400
C573        C  0.36478848  0.18765816  0.63252674     0.13700
C574        C  0.36070039  0.18660381  0.60148362     0.00600
C575        C  0.33520328  0.17599625  0.59023965     0.15600
C576        C  0.31556086  0.16329104  0.60959773     0.25000
C577        C  0.32137272  0.16087367  0.64028502    -0.41300
C578        C  0.34513376  0.17492620  0.65186647     0.32100
C579        C  0.38420479  0.19285560  0.58084568     0.00700
F580        F  0.33067104  0.17510567  0.56032096    -0.13600
F581        F  0.35096347  0.17300634  0.68148894    -0.14100
C582        C  0.40751084  0.17374698  0.57990781     0.15600
C583        C  0.42928089  0.17863051  0.55945983     0.25000
C584        C  0.42824037  0.20295395  0.53981669    -0.41200
C585        C  0.40492677  0.22220394  0.54112688     0.32000
C586        C  0.38300204  0.21696650  0.56121939     0.13700
F587        F  0.40889061  0.14999467  0.59846459    -0.13600
F588        F  0.40376825  0.24678330  0.52372265    -0.14100
F589        F  0.45108477  0.15928801  0.55853567    -0.16400
F590        F  0.36077776  0.23575651  0.56191418    -0.15000
F591        F  0.38881904  0.19893414  0.64387520    -0.15000
F592        F  0.29266288  0.14985297  0.59800855    -0.16400
C593        C  0.84324883  0.06307534  0.81991525     0.13700
C594        C  0.86977236  0.05570835  0.80829877     0.00600
C595        C  0.87486796  0.05938907  0.77756250     0.15600
C596        C  0.85476245  0.07307437  0.75937015     0.25000
C597        C  0.82963074  0.08357765  0.77185622    -0.41300
C598        C  0.82327100  0.07682202  0.80174637     0.32100
C599        C  0.89291477  0.04825817  0.82904866     0.00700
F600        F  0.90015637  0.05196473  0.76575131    -0.13600
F601        F  0.79937010  0.08741502  0.81436922    -0.14100
C602        C  0.89042622  0.02443433  0.84893152     0.15600
C603        C  0.91034875  0.01998327  0.87138226     0.25000
C604        C  0.93335268  0.03927538  0.87429464    -0.41200
C605        C  0.93641309  0.06239942  0.85345926     0.32000
C606        C  0.91633549  0.06689144  0.83113030     0.13700
F607        F  0.86856655  0.00549940  0.84661710    -0.13600
F608        F  0.95831248  0.08132595  0.85523960    -0.14100
F609        F  0.90724176  0.99645342  0.88994742    -0.16400
F610        F  0.91919092  0.09024761  0.81228080    -0.15000
F611        F  0.83790613  0.06022360  0.84960095    -0.15000
F612        F  0.86111323  0.07920007  0.73043297    -0.16400
C613        C  0.89703061  0.24431925  0.84751048     0.13700
C614        C  0.89764626  0.22144477  0.82661553     0.00600
C615        C  0.92048287  0.20164661  0.82657755     0.15600
C616        C  0.94183098  0.20405041  0.84778826     0.25000
C617        C  0.94050356  0.22603822  0.86979041    -0.41300
C618        C  0.91824722  0.24670834  0.86879117     0.32100
C619        C  0.87324676  0.21599270  0.80703988     0.00700
F620        F  0.92126792  0.17879126  0.80712897    -0.13600
F621        F  0.91681084  0.26928650  0.88852071    -0.14100
C622        C  0.87704520  0.21194510  0.77618702     0.15600
C623        C  0.85605718  0.19865585  0.75926985     0.25000
C624        C  0.83099341  0.18964424  0.77295769    -0.41200
C625        C  0.82581925  0.19709422  0.80283903     0.32000
C626        C  0.84687982  0.21008088  0.81987796     0.13700
F627        F  0.90202133  0.21830835  0.76309688    -0.13600
F628        F  0.80193624  0.18795931  0.81655526    -0.14100
F629        F  0.86157043  0.19105343  0.73055526    -0.16400
F630        F  0.84264819  0.21347919  0.84966970    -0.15000
F631        F  0.87548968  0.26400425  0.84774717    -0.15000
F632        F  0.96297396  0.18391311  0.84761174    -0.16400
C633        C  0.63642456  0.07395961  0.59413098     0.13700
C634        C  0.65874590  0.05472287  0.60079541     0.00600
C635        C  0.66377089  0.03041893  0.58228856     0.15600
C636        C  0.64595405  0.02470530  0.55813902     0.25000
C637        C  0.62283584  0.04336829  0.55205991    -0.41300
C638        C  0.61863044  0.06835769  0.57008622     0.32100
C639        C  0.67714832  0.06118833  0.62648553     0.00700
F640        F  0.68561798  0.01193586  0.58796664    -0.13600
F641        F  0.59755425  0.08774028  0.56417118    -0.14100
C642        C  0.66578702  0.06261789  0.65546492     0.15600
C643        C  0.68078961  0.07612157  0.67840321     0.25000
C644        C  0.70713348  0.08851248  0.67247380    -0.41200
C645        C  0.71978773  0.08402682  0.64449948     0.32000
C646        C  0.70488769  0.07033984  0.62159907     0.13700
F647        F  0.63933800  0.05297960  0.66089730    -0.13600
F648        F  0.74519935  0.09605584  0.63835977    -0.14100
F649        F  0.66860944  0.07962130  0.70559675    -0.16400
F650        F  0.71641975  0.06886483  0.59389903    -0.15000
F651        F  0.63219933  0.09859944  0.61067584    -0.15000
F652        F  0.64638076  0.49842662  0.54537326    -0.16400
C653        C  0.68747650  0.22099075  0.64248088     0.13700
C654        C  0.65886960  0.22064224  0.65030405     0.00600
C655        C  0.65113482  0.21084688  0.67898378     0.15600
C656        C  0.67099569  0.19729953  0.69754920     0.25000
C657        C  0.69873169  0.19338880  0.68757976    -0.41300
C658        C  0.70733558  0.20744843  0.66109863     0.32100
C659        C  0.63730872  0.22426456  0.62665779     0.00700
F660        F  0.62382648  0.21147887  0.68760948    -0.13600
F661        F  0.73407253  0.20415839  0.65113116    -0.14100
C662        C  0.62036628  0.20008547  0.61898175     0.15600
C663        C  0.60310058  0.20126896  0.59372664     0.25000
C664        C  0.60261642  0.22657785  0.57550041    -0.41200
C665        C  0.61859576  0.25126526  0.58400735     0.32000
C666        C  0.63580178  0.25008000  0.60931827     0.13700
F667        F  0.62194675  0.17452707  0.63485225    -0.13600
F668        F  0.61775000  0.27653940  0.56762422    -0.14100
F669        F  0.58833141  0.17695531  0.58603842    -0.16400
F670        F  0.65151513  0.27389087  0.61650948    -0.15000
F671        F  0.69568061  0.23084689  0.61515059    -0.15000
F672        F  0.66234360  0.18417337  0.72327024    -0.16400
C673        C  0.71254305  0.66704321  0.69716579    -0.09800
C674        C  0.70172713  0.64038444  0.68702931    -0.03700
C675        C  0.71567286  0.61365506  0.69154853    -0.09800
C676        C  0.74057176  0.61302241  0.70846493     0.11100
C677        C  0.75211050  0.63996051  0.71872817    -0.01600
C678        C  0.73834705  0.66720717  0.71259729     0.10900
C679        C  0.75072702  0.69362715  0.72199469    -0.11600
C680        C  0.77637440  0.69338025  0.73701439    -0.11600
C681        C  0.79015204  0.66667743  0.74350218     0.10900
C682        C  0.77775545  0.63966484  0.73460769    -0.01600
C683        C  0.75410896  0.58628708  0.71541135    -0.11800
C684        C  0.77860158  0.58590477  0.73237567    -0.11800
C685        C  0.79082050  0.61231372  0.74189855     0.11100
C686        C  0.81591614  0.61233009  0.75844588    -0.09800
C687        C  0.82844770  0.63895653  0.76571562    -0.03700
C688        C  0.81606466  0.66595986  0.75867720    -0.09800
H689        H  0.74069300  0.71467066  0.71764120     0.08400
H690        H  0.78533295  0.71423536  0.74363119     0.08400
H691        H  0.74552717  0.56545699  0.70817576     0.08600
H692        H  0.78824240  0.56482428  0.73751985     0.08600
H693        H  0.68280098  0.64071935  0.67354459     0.05000
H694        H  0.84776283  0.63864618  0.77858454     0.05000
Zr695      Zr  0.53351272  0.79019603  0.42006939     2.17500
O696        O  0.54345768  0.81322111  0.37183459    -0.50300
O697        O  0.53221353  0.84339970  0.43208950    -0.73500
O698        O  0.49151436  0.79292082  0.38815815    -0.80300
O699        O  0.61145709  0.76602624  0.43055179    -0.82100
O700        O  0.45569969  0.76729505  0.40925086    -0.77700
O701        O  0.58072591  0.78701165  0.39793708    -0.89300
O702        O  0.52349332  0.84624242  0.48181590    -0.75300
O703        O  0.49716362  0.79197131  0.45674164    -0.84800
O704        O  0.55691618  0.79576165  0.46686357    -0.84500
O705        O  0.50918912  0.74361523  0.41660307    -0.71200
O706        O  0.56237316  0.74744384  0.42758708    -0.83400
Zr707      Zr  0.52484775  0.70779902  0.50797239     2.26400
Zr708      Zr  0.47364929  0.74528300  0.45466008     2.06300
Zr709      Zr  0.58511984  0.75250711  0.47456777     2.10000
Zr710      Zr  0.52060238  0.79721486  0.50322318     1.78800
O711        O  0.62386112  0.71735416  0.47343956    -0.92200
O712        O  0.47553139  0.81864374  0.51723063    -0.40000
O713        O  0.54866800  0.75420734  0.51053964    -0.76600
O714        O  0.49579273  0.75148940  0.50221164    -0.95300
O715        O  0.50233347  0.70224835  0.46083118    -0.88600
O716        O  0.56153586  0.70598883  0.47168598    -0.91400
C717        C  0.52814803  0.85817436  0.45622863     1.02300
C718        C  0.60543051  0.77769509  0.40520544     1.15300
C719        C  0.46615729  0.78314202  0.38824603     1.06000
O720        O  0.43340636  0.77623981  0.46659941    -0.93600
O721        O  0.44635229  0.72147587  0.49363428    -0.89300
O722        O  0.47696201  0.70128728  0.52684006    -0.82500
C723        C  0.45199180  0.70791739  0.51816721     1.12700
O724        O  0.54983102  0.70416705  0.37123403    -0.95600
Zr725      Zr  0.53880217  0.70167906  0.42442229     1.88900
O726        O  0.52973619  0.65517773  0.49442290    -0.72200
O727        O  0.44542183  0.70735414  0.43107392    -0.51500
O728        O  0.50438478  0.67690809  0.39326414    -0.96100
O729        O  0.58469475  0.68080272  0.41251987    -0.53400
O730        O  0.53515534  0.65273681  0.44416542    -0.72700
C731        C  0.53243261  0.64071927  0.46988191     0.99600
O732        O  0.52419356  0.68094525  0.55538958    -0.61500
O733        O  0.61603587  0.79176866  0.49137022    -0.56300
O734        O  0.56190114  0.71393788  0.54560412    -0.93000
O735        O  0.59722335  0.74134055  0.52585888    -0.91500
O736        O  0.55622922  0.82292686  0.53179797    -0.91800
O737        O  0.51525870  0.79479130  0.55729759    -0.90600
C738        C  0.58571322  0.72714664  0.54745799     1.18500
H739        H  0.56836675  0.81325202  0.46718098     0.34400
H740        H  0.48232347  0.75364255  0.51814495     0.45300
H741        H  0.57420799  0.68975892  0.47561406     0.38800
H742        H  0.50128235  0.74060542  0.39703568     0.35300
H743        H  0.48010627  0.83390801  0.53214819     0.27100
H744        H  0.42641769  0.71612893  0.42957491     0.33000
H745        H  0.49146082  0.66716490  0.40751581     0.38900
H746        H  0.57199650  0.80872018  0.53331107     0.33400
H747        H  0.63335172  0.78154464  0.49797538     0.32200
H748        H  0.64093744  0.72967309  0.47279086     0.33900
H749        H  0.58828553  0.66567630  0.42808852     0.32900
H750        H  0.51729616  0.77359021  0.56227698     0.36900
H751        H  0.51291147  0.69316533  0.56923493     0.29600
H752        H  0.53040737  0.83019033  0.37026607     0.33900
H753        H  0.55255460  0.68349089  0.36482047     0.36700
H754        H  0.62165802  0.80267017  0.47311882     0.29300
H755        H  0.51266189  0.66320852  0.55185196     0.42200
H756        H  0.43706432  0.78327305  0.48710996     0.32200
H757        H  0.46944909  0.82996397  0.49939028     0.39900
H758        H  0.59814224  0.69675657  0.41695073     0.31700
H759        H  0.45226336  0.70658404  0.41020486     0.31800
H760        H  0.53693167  0.79905659  0.35661970     0.32000
Zr761      Zr  0.53104427  0.95939362  0.41868216     2.17500
O762        O  0.52664663  0.93607600  0.36990456    -0.50300
O763        O  0.52989150  0.90603505  0.43160337    -0.73500
O764        O  0.57552117  0.95584037  0.39182455    -0.80300
O765        O  0.45391925  0.98776710  0.41435584    -0.82100
O766        O  0.61054135  0.97540035  0.41982511    -0.77700
O767        O  0.48795299  0.96307693  0.38919338    -0.89300
O768        O  0.52931814  0.90270980  0.48214577    -0.75300
O769        O  0.56088491  0.95437175  0.46113347    -0.84800
O770        O  0.50015504  0.95575520  0.46042695    -0.84500
O771        O  0.55850143  0.50379187  0.41977178    -0.71200
O772        O  0.50420734  0.50411107  0.42092465    -0.83400
Zr773      Zr  0.53186643  0.54033774  0.50686640     2.26400
Zr774      Zr  0.58812436  0.99875066  0.46287665     2.06300
Zr775      Zr  0.47423199  0.00122286  0.46187443     2.10000
Zr776      Zr  0.53004851  0.95151517  0.50289635     1.78800
O777        O  0.43985886  0.53889345  0.45256525    -0.92200
O778        O  0.57029850  0.92713868  0.52584729    -0.40000
O779        O  0.50391176  0.99617290  0.50424654    -0.76600
O780        O  0.55832579  0.99475893  0.50613769    -0.95300
O781        O  0.56184874  0.54408858  0.46438501    -0.88600
O782        O  0.50124457  0.54508912  0.46496583    -0.91400
C783        C  0.52926621  0.89103470  0.45618946     1.02300
C784        C  0.46312387  0.97415220  0.39126244     1.15300
C785        C  0.60131575  0.96251567  0.39629908     1.06000
O786        O  0.62345612  0.96396724  0.48065485    -0.93600
O787        O  0.61130058  0.52230653  0.50491290    -0.89300
O788        O  0.57732624  0.54607198  0.53124957    -0.82500
C789        C  0.60287493  0.53787622  0.52711470     1.12700
O790        O  0.52880015  0.54543534  0.36821000    -0.95600
Zr791      Zr  0.53135904  0.54799516  0.42254943     1.88900
O792        O  0.52995842  0.59323951  0.49411665    -0.72200
O793        O  0.62112398  0.53459600  0.44149075    -0.51500
O794        O  0.57258815  0.57027009  0.39958128    -0.96100
O795        O  0.49050935  0.57345952  0.40198381    -0.53400
O796        O  0.53417596  0.59644786  0.44376601    -0.72700
C797        C  0.53225395  0.60808157  0.46967764     0.99600
O798        O  0.52776801  0.56411164  0.55548744    -0.61500
O799        O  0.43657673  0.96601343  0.47039228    -0.56300
O800        O  0.48968206  0.53620650  0.53796648    -0.93000
O801        O  0.45554208  0.51298913  0.51179313    -0.91500
O802        O  0.48851554  0.92959446  0.52555126    -0.91800
O803        O  0.52793109  0.95275885  0.55723425    -0.90600
C804        C  0.46492600  0.52528006  0.53547371     1.18500
H805        H  0.48772377  0.93911600  0.45852624     0.34400
H806        H  0.56899963  0.99182079  0.52421065     0.45300
H807        H  0.48922720  0.56218665  0.46678297     0.38800
H808        H  0.56921358  0.50645951  0.40167574     0.35300
H809        H  0.56285628  0.90828274  0.53371659     0.27100
H810        H  0.63976238  0.52513600  0.44371218     0.33000
H811        H  0.56683409  0.59069515  0.39453593     0.38900
H812        H  0.47910775  0.91889900  0.50920038     0.33400
H813        H  0.44085368  0.95692249  0.49002039     0.32200
H814        H  0.42194280  0.53097591  0.46033273     0.33900
H815        H  0.48403234  0.58698347  0.41786466     0.32900
H816        H  0.51748460  0.97109527  0.56186665     0.36900
H817        H  0.53736436  0.55081254  0.56985491     0.29600
H818        H  0.53968340  0.91903100  0.37019386     0.33900
H819        H  0.52986709  0.56606963  0.36098368     0.36700
H820        H  0.41966449  0.97823376  0.47399287     0.29300
H821        H  0.53974867  0.58185622  0.55432688     0.42200
H822        H  0.61929178  0.96129795  0.50216791     0.32200
H823        H  0.58237560  0.92129701  0.50885744     0.39900
H824        H  0.47581369  0.55814196  0.40099815     0.31700
H825        H  0.61745991  0.53438198  0.41972964     0.31800
H826        H  0.53478992  0.95009563  0.35525714     0.32000
C827        C  0.31130261  0.63554025  0.65701676    -0.09800
C828        C  0.32594388  0.60947085  0.65177597    -0.03700
C829        C  0.31812524  0.58288595  0.66491327    -0.09800
C830        C  0.29444160  0.58178894  0.68371212     0.11100
C831        C  0.27969502  0.60834655  0.69004398    -0.01600
C832        C  0.28835143  0.63549652  0.67695302     0.10900
C833        C  0.27407745  0.66160363  0.68435641    -0.11600
C834        C  0.25185438  0.66121388  0.70471724    -0.11600
C835        C  0.24267400  0.63457745  0.71743632     0.10900
C836        C  0.25638475  0.60777481  0.70962964    -0.01600
C837        C  0.28520330  0.55511228  0.69632599    -0.11800
C838        C  0.26174215  0.55443303  0.71497208    -0.11800
C839        C  0.24719045  0.58048580  0.72193116     0.11100
C840        C  0.22370441  0.58031354  0.74106019    -0.09800
C841        C  0.21054639  0.60674672  0.74842211    -0.03700
C842        C  0.22009014  0.63375044  0.73781349    -0.09800
H843        H  0.28033293  0.68254353  0.67478401     0.08400
H844        H  0.24158970  0.68184541  0.71013964     0.08400
H845        H  0.29601345  0.53458779  0.69171558     0.08600
H846        H  0.25517112  0.53341562  0.72412118     0.08600
H847        H  0.34393258  0.60984582  0.63682713     0.05000
H848        H  0.19314903  0.60640163  0.76415235     0.05000
Zr849      Zr  0.03530890  0.79065868  0.00875821     2.17500
O850        O  0.03395736  0.81831088  0.05536702    -0.50300
O851        O  0.03377926  0.84399522  0.99675951    -0.73500
O852        O  0.08096190  0.79012880  0.03399859    -0.80300
O853        O  0.95609811  0.77477968  0.01133432    -0.82100
O854        O  0.11294611  0.76672178  0.00487688    -0.77700
O855        O  0.99362030  0.78547638  0.04053138    -0.89300
O856        O  0.03545516  0.84751497  0.94628132    -0.75300
O857        O  0.06524055  0.79254112  0.96595661    -0.84800
O858        O  0.00486679  0.79778913  0.96699745    -0.84500
O859        O  0.05926969  0.74349040  0.00703214    -0.71200
O860        O  0.00503695  0.74865754  0.00717418    -0.83400
Zr861      Zr  0.02818966  0.71023860  0.91991304     2.26400
Zr862      Zr  0.08820152  0.74535530  0.96305031     2.06300
Zr863      Zr  0.97508777  0.75552610  0.96516000     2.10000
Zr864      Zr  0.03478721  0.79907514  0.92443770     1.78800
O865        O  0.93774280  0.72295779  0.98204356    -0.92200
O866        O  0.07876717  0.81869703  0.90509807    -0.40000
O867        O  0.00450931  0.75721981  0.92205902    -0.76600
O868        O  0.05855703  0.75296366  0.92038497    -0.95300
O869        O  0.05824776  0.70306999  0.96182981    -0.88600
O870        O  0.99816430  0.70845064  0.96255746    -0.91400
C871        C  0.03426395  0.85907424  0.97230411     1.02300
C872        C  0.96717342  0.78142925  0.03648816     1.15300
C873        C  0.10596897  0.78069236  0.02862322     1.06000
O874        O  0.12759580  0.77455073  0.94518250    -0.93600
O875        O  0.10841728  0.72229521  0.91884784    -0.89300
O876        O  0.07215232  0.70374362  0.89209621    -0.82500
C877        C  0.09834373  0.70951866  0.89567073     1.12700
O878        O  0.02876314  0.70032617  0.05896710    -0.95600
Zr879      Zr  0.02842473  0.70229386  0.00450447     1.88900
O880        O  0.02581295  0.65717201  0.93325310    -0.72200
O881        O  0.11863965  0.70623730  0.98190221    -0.51500
O882        O  0.06860877  0.67607191  0.02552343    -0.96100
O883        O  0.98535620  0.68295823  0.02648919    -0.53400
O884        O  0.02617843  0.65387066  0.98377201    -0.72700
C885        C  0.02564884  0.64226016  0.95785076     0.99600
O886        O  0.02119965  0.68420628  0.87295055    -0.61500
O887        O  0.94159586  0.79333962  0.94948381    -0.56300
O888        O  0.98453398  0.71681737  0.89140905    -0.93000
O889        O  0.95208946  0.74042186  0.91982272    -0.91500
O890        O  0.99766228  0.82706329  0.89986215    -0.91800
O891        O  0.03485427  0.80003999  0.87004622    -0.90600
C892        C  0.95983250  0.72771220  0.89566502     1.18500
H893        H  0.99377911  0.81552568  0.96887085     0.34400
H894        H  0.06912343  0.75539183  0.90215405     0.45300
H895        H  0.98474060  0.69267352  0.96083865     0.38800
H896        H  0.07012175  0.73945457  0.02476355     0.35300
H897        H  0.07349989  0.83761769  0.89545867     0.27100
H898        H  0.13786475  0.71294299  0.97707377     0.33000
H899        H  0.07688699  0.66508901  0.00859098     0.38900
H900        H  0.98016422  0.82017083  0.90949533     0.33400
H901        H  0.92302933  0.78537253  0.95517289     0.32200
H902        H  0.92026749  0.73215194  0.97444037     0.33900
H903        H  0.97499744  0.67380385  0.00982610     0.32900
H904        H  0.02716349  0.78065619  0.86426503     0.36900
H905        H  0.02913218  0.69714824  0.85721139     0.29600
H906        H  0.04901446  0.83319883  0.05372588     0.33900
H907        H  0.02726087  0.67917398  0.06433366     0.36700
H908        H  0.94445240  0.81007738  0.96320994     0.29300
H909        H  0.03388993  0.66687624  0.87368163     0.42200
H910        H  0.12232895  0.78058534  0.92465893     0.32200
H911        H  0.08948969  0.82457475  0.92300264     0.39900
H912        H  0.97416240  0.70064527  0.03167836     0.31700
H913        H  0.11735959  0.70760933  0.00392573     0.31800
H914        H  0.04046249  0.80438763  0.07102794     0.32000
Zr915      Zr  0.02750402  0.95966252  0.00956680     2.17500
O916        O  0.03144999  0.93486629  0.05792567    -0.50300
O917        O  0.03094609  0.90652705  0.99695331    -0.73500
O918        O  0.98195829  0.95562908  0.03552016    -0.80300
O919        O  0.10381548  0.98958771  0.01206427    -0.82100
O920        O  0.94789330  0.97471111  0.00568133    -0.77700
O921        O  0.07098595  0.96466525  0.03894712    -0.89300
O922        O  0.03238526  0.90373460  0.94643092    -0.75300
O923        O  0.99789600  0.95478617  0.96693543    -0.84800
O924        O  0.05806164  0.95644177  0.96734163    -0.84500
O925        O  0.99804037  0.50455729  0.00876827    -0.71200
O926        O  0.05199321  0.50499723  0.00782716    -0.83400
Zr927      Zr  0.02369764  0.54192350  0.92079551     2.26400
Zr928      Zr  0.97020147  0.99901233  0.96424207     2.06300
Zr929      Zr  0.08302323  0.00214522  0.96446767     2.10000
Zr930      Zr  0.02835316  0.95220024  0.92494850     1.78800
O931        O  0.11739217  0.53852220  0.97658750    -0.92200
O932        O  0.98828818  0.92510012  0.90567835    -0.40000
O933        O  0.05314272  0.99756848  0.92231227    -0.76600
O934        O  0.99953501  0.99525661  0.92100921    -0.95300
O935        O  0.99414688  0.54545992  0.96366041    -0.88600
O936        O  0.05425240  0.54646632  0.96282760    -0.91400
C937        C  0.03255260  0.89184271  0.97241009     1.02300
C938        C  0.09558187  0.97608789  0.03572576     1.15300
C939        C  0.95617608  0.96235376  0.02988889     1.06000
O940        O  0.93492992  0.96508079  0.94572369    -0.93600
O941        O  0.94497129  0.52084301  0.92251814    -0.89300
O942        O  0.97810347  0.54461102  0.89518034    -0.82500
C943        C  0.95283498  0.53552965  0.89944672     1.12700
O944        O  0.02266305  0.54750406  0.06009079    -0.95600
Zr945      Zr  0.02457300  0.54899369  0.00562263     1.88900
O946        O  0.02477613  0.59486292  0.93349859    -0.72200
O947        O  0.93506243  0.53612987  0.98365919    -0.51500
O948        O  0.98367952  0.57386202  0.02663903    -0.96100
O949        O  0.06594684  0.57085538  0.02844677    -0.53400
O950        O  0.02503882  0.59769424  0.98405484    -0.72700
C951        C  0.02501775  0.60954958  0.95801551     0.99600
O952        O  0.02644613  0.56871196  0.87343681    -0.61500
O953        O  0.11842073  0.96536247  0.95151133    -0.56300
O954        O  0.06589530  0.53816447  0.88954769    -0.93000
O955        O  0.10078959  0.51789079  0.91750495    -0.91500
O956        O  0.07103196  0.93293701  0.90215469    -0.91800
O957        O  0.02664404  0.95067366  0.87060771    -0.90600
C958        C  0.09129943  0.52904021  0.89310317     1.18500
H959        H  0.07085752  0.93998137  0.96916505     0.33600
H960        H  0.98889340  0.99187688  0.90306028     0.45300
H961        H  0.06626284  0.56345383  0.96086029     0.38800
H962        H  0.98709551  0.50723018  0.02669334     0.35300
H963        H  0.99623478  0.90627406  0.89834748     0.27100
H964        H  0.91664056  0.52630185  0.98191418     0.33000
H965        H  0.97555551  0.58538324  0.00988942     0.38900
H966        H  0.08158782  0.95060892  0.89567467     0.33400
H967        H  0.13589221  0.97673149  0.94858612     0.32200
H968        H  0.13439875  0.53171474  0.96589251     0.33900
H969        H  0.07681813  0.57936846  0.01166684     0.32900
H970        H  0.03520764  0.96948680  0.86407050     0.36900
H971        H  0.01867842  0.55528659  0.85820199     0.29600
H972        H  0.01864237  0.91777519  0.05697787     0.33900
H973        H  0.02408557  0.56826028  0.06663356     0.36700
H974        H  0.12172838  0.95383823  0.97002788     0.29300
H975        H  0.01262260  0.58499535  0.87492312     0.42200
H976        H  0.94106173  0.96032186  0.92516486     0.32200
H977        H  0.97732404  0.91941349  0.92358833     0.39900
H978        H  0.07735720  0.55384864  0.03534907     0.31700
H979        H  0.93856392  0.53728962  0.00540785     0.31800
H980        H  0.02277915  0.94838568  0.07261248     0.32000
C981        C  0.34539910  0.91333120  0.22836054    -0.09800
C982        C  0.35926239  0.88678818  0.23417689    -0.03700
C983        C  0.34749481  0.85966453  0.22703876    -0.09800
C984        C  0.32187325  0.85889376  0.21132542     0.11100
C985        C  0.30777597  0.88579762  0.20453126    -0.01600
C986        C  0.31950236  0.91316123  0.21321470     0.10900
C987        C  0.30494990  0.93945954  0.20688456    -0.11600
C988        C  0.27890437  0.93892939  0.19275032    -0.11600
C989        C  0.26662042  0.91207449  0.18462137     0.10900
C990        C  0.28133598  0.88525759  0.19020281    -0.01600
C991        C  0.30997026  0.83209948  0.20240446    -0.11800
C992        C  0.28452559  0.83165402  0.18706089    -0.11800
C993        C  0.26975946  0.85791322  0.18119221     0.11100
C994        C  0.24354224  0.85773346  0.16671263    -0.09800
C995        C  0.22865607  0.88397330  0.16304344    -0.03700
C996        C  0.23988009  0.91106904  0.17118875    -0.09800
H997        H  0.31361346  0.96061371  0.21297231     0.08400
H998        H  0.26824113  0.95966913  0.18858379     0.08400
H999        H  0.32047963  0.81135021  0.20696997     0.08600
H1000       H  0.27611607  0.81054401  0.18044750     0.08600
H1001       H  0.37834241  0.88712606  0.24741810     0.05000
H1002       H  0.20865850  0.88352130  0.15144336     0.05000
C1003       C  0.72733585  0.87949722  0.24620523    -0.09800
C1004       C  0.71948564  0.85214043  0.25768591    -0.03700
C1005       C  0.73532742  0.82673683  0.25266983    -0.09800
C1006       C  0.75971058  0.82816677  0.23511163     0.11100
C1007       C  0.76739787  0.85553269  0.22203851    -0.01600
C1008       C  0.75125769  0.88140599  0.22766343     0.10900
C1009       C  0.75928209  0.90819895  0.21441062    -0.11600
C1010       C  0.78249031  0.90952074  0.19545920    -0.11600
C1011       C  0.79868084  0.88421107  0.18975661     0.10900
C1012       C  0.79143951  0.85706531  0.20360892    -0.01600
C1013       C  0.77652948  0.80312392  0.23041171    -0.11800
C1014       C  0.80056340  0.80479140  0.21282162    -0.11800
C1015       C  0.80815271  0.83140975  0.19896111     0.11100
C1016       C  0.83211285  0.83330364  0.18061825    -0.09800
C1017       C  0.83827783  0.85987209  0.16633974    -0.03700
C1018       C  0.82197517  0.88506427  0.17046696    -0.09800
H1019       H  0.74731158  0.92817825  0.21816900     0.08400
H1020       H  0.78772125  0.93051693  0.18531394     0.08400
H1021       H  0.77118552  0.78205922  0.24033675     0.08600
H1022       H  0.81304114  0.78501031  0.20995538     0.08600
H1023       H  0.70142036  0.85083673  0.27245450     0.05000
H1024       H  0.85626462  0.86098098  0.15144084     0.05000
C1025       C  0.87155189  0.94290409  0.14716098     0.13700
C1026       C  0.86850034  0.94096943  0.11606263     0.00600
C1027       C  0.84472377  0.92720618  0.10407618     0.15600
C1028       C  0.82611916  0.91238184  0.12291780     0.25000
C1029       C  0.83116621  0.91131380  0.15380083    -0.41300
C1030       C  0.85283194  0.92821197  0.16599042     0.32100
C1031       C  0.89199139  0.94874834  0.09617307     0.00700
F1032       F  0.84143657  0.92503195  0.07403080    -0.13600
F1033       F  0.85808116  0.92706533  0.19576847    -0.14100
C1034       C  0.91743126  0.93303130  0.09806558     0.15600
C1035       C  0.93857044  0.93749563  0.07683392     0.25000
C1036       C  0.93445201  0.95762519  0.05319032    -0.41200
C1037       C  0.90924560  0.97424760  0.05233496     0.32000
C1038       C  0.88827373  0.96971262  0.07353996     0.13700
F1039       F  0.92132110  0.91244410  0.11982712    -0.13600
F1040       F  0.90478348  0.99527512  0.03117631    -0.14100
F1041       F  0.96261538  0.92150447  0.07901592    -0.16400
F1042       F  0.86416451  0.98569556  0.07187249    -0.15000
F1043       F  0.89413839  0.95660347  0.15908502    -0.15000
F1044       F  0.80556385  0.89566391  0.11075859    -0.16400
C1045       C  0.20903633  0.96079177  0.11442362     0.13700
C1046       C  0.18162167  0.96345798  0.12582228     0.00600
C1047       C  0.17660577  0.95647330  0.15598931     0.15600
C1048       C  0.19768174  0.94324639  0.17323677     0.25000
C1049       C  0.22402410  0.93710975  0.16052211    -0.41300
C1050       C  0.23013420  0.94776946  0.13176154     0.32100
C1051       C  0.15779555  0.96852938  0.10512215     0.00700
F1052       F  0.15058695  0.96001160  0.16784662    -0.13600
F1053       F  0.25528975  0.94153589  0.11893769    -0.14100
C1054       C  0.13735225  0.94651072  0.10156589     0.15600
C1055       C  0.11638481  0.94947748  0.07989387     0.25000
C1056       C  0.11587269  0.97418263  0.06079725    -0.41200
C1057       C  0.13595527  0.99659494  0.06495308     0.32000
C1058       C  0.15658301  0.99383137  0.08702350     0.13700
F1059       F  0.13856840  0.92132413  0.11806724    -0.13600
F1060       F  0.13565868  0.02127983  0.04764908    -0.14100
F1061       F  0.09752247  0.92741079  0.07658448    -0.16400
F1062       F  0.17559019  0.01573569  0.09054824    -0.15000
F1063       F  0.21458763  0.96745438  0.08541248    -0.15000
F1064       F  0.19135752  0.93307869  0.20101447    -0.16400
C1065       C  0.93745698  0.76743597  0.11368850     0.13700
C1066       C  0.91039331  0.77952190  0.11091422     0.00600
C1067       C  0.90259524  0.79321209  0.08384044     0.15600
C1068       C  0.92127517  0.79435224  0.05985940     0.25000
C1069       C  0.94834449  0.78235238  0.06261207    -0.41300
C1070       C  0.95635974  0.76899036  0.08976915     0.32100
C1071       C  0.89136895  0.78190361  0.13696838     0.00700
F1072       F  0.87724011  0.80671771  0.08103299    -0.13600
F1073       F  0.98220925  0.75668042  0.09286437    -0.14100
C1074       C  0.89985558  0.79863385  0.16163678     0.15600
C1075       C  0.87976077  0.81161088  0.18009301     0.25000
C1076       C  0.85108951  0.80840149  0.17369041    -0.41200
C1077       C  0.84276521  0.78767512  0.15234404     0.32000
C1078       C  0.86292969  0.77414165  0.13423346     0.13700
F1079       F  0.92718764  0.80607295  0.16524624    -0.13600
F1080       F  0.81515665  0.78382227  0.14617264    -0.14100
F1081       F  0.88818083  0.83116246  0.20107506    -0.16400
F1082       F  0.85444416  0.75643018  0.11165929    -0.15000
F1083       F  0.94557609  0.75421690  0.13956865    -0.15000
F1084       F  0.91317158  0.80799002  0.03417848    -0.16400
C1085       C  0.17410308  0.77255330  0.07225960     0.13700
C1086       C  0.17041021  0.79338526  0.09494608     0.00600
C1087       C  0.14504789  0.80918146  0.09660470     0.15600
C1088       C  0.12399607  0.80490858  0.07540266     0.25000
C1089       C  0.12797858  0.78487935  0.05177568    -0.41300
C1090       C  0.15315459  0.76826368  0.05091288     0.32100
C1091       C  0.19395634  0.80160180  0.11466208     0.00700
F1092       F  0.14121381  0.82996532  0.11796004    -0.13600
F1093       F  0.15767610  0.74772954  0.02946951    -0.14100
C1094       C  0.21784473  0.81482500  0.10207864     0.15600
C1095       C  0.23672491  0.82987593  0.12019866     0.25000
C1096       C  0.23186888  0.83205376  0.15105972    -0.41200
C1097       C  0.20953654  0.81649249  0.16400923     0.32000
C1098       C  0.19073913  0.80114708  0.14590416     0.13700
F1099       F  0.22110583  0.81619367  0.07195605    -0.13600
F1100       F  0.20427397  0.81885377  0.19371063    -0.14100
F1101       F  0.25764561  0.84563504  0.10718603    -0.16400
F1102       F  0.16809770  0.78798877  0.15856836    -0.15000
F1103       F  0.19822486  0.75661990  0.07054412    -0.15000
F1104       F  0.10014652  0.82119063  0.07761781    -0.16400
C1105       C  0.12955304  0.67485969  0.82589441     0.13700
C1106       C  0.15255358  0.69340042  0.82003255     0.00600
C1107       C  0.15782758  0.71692532  0.83947798     0.15600
C1108       C  0.14088957  0.72144819  0.86463740     0.25000
C1109       C  0.11771296  0.70303404  0.87045156    -0.41300
C1110       C  0.11216391  0.67980150  0.85061763     0.32100
C1111       C  0.17235630  0.68634665  0.79533665     0.00700
F1112       F  0.17928920  0.73576468  0.83391900    -0.13600
F1113       F  0.09030440  0.66131447  0.85554680    -0.14100
C1114       C  0.16251089  0.68137370  0.76615071     0.15600
C1115       C  0.17989533  0.66788752  0.74493785     0.25000
C1116       C  0.20743803  0.65969950  0.75245386    -0.41200
C1117       C  0.21821124  0.66776194  0.78040176     0.32000
C1118       C  0.20077357  0.68074746  0.80178103     0.13700
F1119       F  0.13545369  0.68748375  0.75891243    -0.13600
F1120       F  0.24445014  0.65912025  0.78847807    -0.14100
F1121       F  0.16891480  0.65963708  0.71831382    -0.16400
F1122       F  0.21085544  0.68465971  0.82982257    -0.15000
F1123       F  0.12441489  0.65127729  0.80820499    -0.15000
F1124       F  0.14679503  0.74443573  0.88281538    -0.16400
C1125       C  0.12841887  0.55194792  0.82139611     0.13700
C1126       C  0.14984237  0.53053656  0.81982400     0.00600
C1127       C  0.15118720  0.50832826  0.84159024     0.15600
C1128       C  0.13197210  0.50785453  0.86509572     0.25000
C1129       C  0.11078952  0.52958209  0.86726953    -0.41300
C1130       C  0.10879419  0.55128222  0.84474418     0.32100
C1131       C  0.17250624  0.53338400  0.79745698     0.00700
F1132       F  0.17152137  0.48732420  0.84033547    -0.13600
F1133       F  0.08872180  0.57257245  0.84598375    -0.14100
C1134       C  0.19981994  0.54000203  0.80699423     0.15600
C1135       C  0.21970336  0.55015254  0.78649042     0.25000
C1136       C  0.21229397  0.55416432  0.75638616    -0.41200
C1137       C  0.18644911  0.54339367  0.74624651     0.32000
C1138       C  0.16646243  0.53334034  0.76676291     0.13700
F1139       F  0.20613432  0.54022593  0.83656500    -0.13600
F1140       F  0.17904838  0.54699877  0.71717596    -0.14100
F1141       F  0.24442174  0.56081092  0.79678331    -0.16400
F1142       F  0.14044918  0.52614449  0.75699911    -0.15000
F1143       F  0.12742927  0.57438555  0.80119315    -0.15000
F1144       F  0.13408928  0.48588408  0.88569867    -0.16400
C1145       C  0.66388454  0.93380824  0.35298972     0.13700
C1146       C  0.65808948  0.94421866  0.32383965     0.00600
C1147       C  0.63388227  0.96145762  0.31914659     0.15600
C1148       C  0.61534758  0.96710493  0.34275283     0.25000
C1149       C  0.62118155  0.95656994  0.37172820    -0.41300
C1150       C  0.64587158  0.94045359  0.37678488     0.32100
C1151       C  0.67631056  0.93519428  0.29835261     0.00700
F1152       F  0.62827937  0.97303075  0.29174857    -0.13600
F1153       F  0.65193179  0.93009254  0.40455450    -0.14100
C1154       C  0.66471949  0.92081657  0.27345126     0.15600
C1155       C  0.68213723  0.90618698  0.25312748     0.25000
C1156       C  0.71127877  0.90510503  0.25770794    -0.41200
C1157       C  0.72304811  0.92223769  0.28046718     0.32000
C1158       C  0.70569244  0.93750863  0.30040133     0.13700
F1159       F  0.63651024  0.91829845  0.27036887    -0.13600
F1160       F  0.75111974  0.92146146  0.28547080    -0.14100
F1161       F  0.67038247  0.89014417  0.23093317    -0.16400
F1162       F  0.71755988  0.95283221  0.32303034    -0.15000
F1163       F  0.68643362  0.91617038  0.35828700    -0.15000
F1164       F  0.59189323  0.98339480  0.33743701    -0.16400
C1165       C  0.40564577  0.99130877  0.33480088     0.13700
C1166       C  0.40973350  0.96879994  0.31386140     0.00600
C1167       C  0.43142854  0.94818418  0.31836734     0.15600
C1168       C  0.44856876  0.94977496  0.34354336     0.25000
C1169       C  0.44443067  0.97210086  0.36485650    -0.41300
C1170       C  0.42286220  0.99304743  0.36003862     0.32100
C1171       C  0.38991516  0.96457188  0.28886619     0.00700
F1172       F  0.43535014  0.92568375  0.29889027    -0.13600
F1173       F  0.41870560  0.01559729  0.37938768    -0.14100
C1174       C  0.39992216  0.96228756  0.25939248     0.15600
C1175       C  0.38321251  0.94954776  0.23736198     0.25000
C1176       C  0.35639858  0.93900194  0.24462523    -0.41200
C1177       C  0.34515488  0.94475615  0.27302948     0.32000
C1178       C  0.36187341  0.95733433  0.29510608     0.13700
F1179       F  0.42681720  0.96957896  0.25274592    -0.13600
F1180       F  0.31957290  0.93402197  0.28070230    -0.14100
F1181       F  0.39445490  0.94395456  0.21007960    -0.16400
F1182       F  0.35186317  0.95876888  0.32347891    -0.15000
F1183       F  0.38499622  0.01164071  0.33073274    -0.15000
F1184       F  0.46869129  0.92884194  0.34739469    -0.16400
C1185       C  0.40846995  0.50230203  0.58994900     0.13700
C1186       C  0.40646665  0.52718945  0.60825529     0.00600
C1187       C  0.42606182  0.55014485  0.60468630     0.15600
C1188       C  0.44605744  0.54903351  0.58182959     0.25000
C1189       C  0.44627241  0.52533439  0.56178189    -0.41300
C1190       C  0.42793309  0.50151025  0.56668531     0.32100
C1191       C  0.38147517  0.53160438  0.62738175     0.00700
F1192       F  0.42463038  0.57462452  0.62195026    -0.13600
F1193       F  0.42862859  0.47748723  0.54873777    -0.14100
C1194       C  0.38434274  0.54076901  0.65714151     0.15600
C1195       C  0.36168563  0.55396092  0.67184266     0.25000
C1196       C  0.33585988  0.55741133  0.65713948    -0.41200
C1197       C  0.33201930  0.54463283  0.62901716     0.32000
C1198       C  0.35470937  0.53190912  0.61411856     0.13700
F1199       F  0.40971296  0.53952170  0.67083975    -0.13600
F1200       F  0.30745512  0.54855494  0.61416872    -0.14100
F1201       F  0.36597333  0.56696795  0.69867958    -0.16400
F1202       F  0.35124269  0.52341426  0.58532065    -0.15000
F1203       F  0.39078698  0.47922576  0.59392487    -0.15000
F1204       F  0.46396095  0.57197868  0.57819001    -0.16400
C1205       C  0.64708512  0.79801324  0.33601667     0.13700
C1206       C  0.66926420  0.77750853  0.33726124     0.00600
C1207       C  0.67118104  0.75804588  0.36155420     0.15600
C1208       C  0.65084662  0.75862040  0.38405596     0.25000
C1209       C  0.62800920  0.77859115  0.38244209    -0.41300
C1210       C  0.62651154  0.79838851  0.35820075     0.32100
C1211       C  0.69114185  0.77827724  0.31395793     0.00700
F1212       F  0.69257623  0.73825526  0.36329237    -0.13600
F1213       F  0.60548421  0.81857215  0.35618756    -0.14100
C1214       C  0.71843429  0.78721005  0.32133484     0.15600
C1215       C  0.73628369  0.79782482  0.29903658     0.25000
C1216       C  0.72648638  0.80053348  0.26961666    -0.41200
C1217       C  0.70109959  0.78725011  0.26160382     0.32000
C1218       C  0.68346064  0.77603689  0.28376340     0.13700
F1219       F  0.72629133  0.78971831  0.35034318    -0.13600
F1220       F  0.69149201  0.78955925  0.23314170    -0.14100
F1221       F  0.76103667  0.81025012  0.30691021    -0.16400
F1222       F  0.65748648  0.76651177  0.27616119    -0.15000
F1223       F  0.64577594  0.81828246  0.31360018    -0.15000
F1224       F  0.65326705  0.73906505  0.40699632    -0.16400
C1225       C  0.43587774  0.81954176  0.31860247     0.13700
C1226       C  0.41364755  0.80049618  0.31157846     0.00600
C1227       C  0.40888964  0.77569462  0.32969962     0.15600
C1228       C  0.42582830  0.77013580  0.35460181     0.25000
C1229       C  0.44804507  0.78932314  0.36190653    -0.41300
C1230       C  0.45296304  0.81397257  0.34341317     0.32100
C1231       C  0.39437829  0.80782039  0.28660204     0.00700
F1232       F  0.38785840  0.75671397  0.32315347    -0.13600
F1233       F  0.47375311  0.83327468  0.34981260    -0.14100
C1234       C  0.40488769  0.81275994  0.25763853     0.15600
C1235       C  0.38785749  0.82580166  0.23576994     0.25000
C1236       C  0.36013310  0.83399425  0.24259308    -0.41200
C1237       C  0.34871684  0.82579976  0.27036560     0.32000
C1238       C  0.36579029  0.81310810  0.29235792     0.13700
F1239       F  0.43219294  0.80694046  0.25123125    -0.13600
F1240       F  0.32205983  0.83373697  0.27755226    -0.14100
F1241       F  0.39922278  0.83334745  0.20899225    -0.16400
F1242       F  0.35513637  0.80899771  0.32021657    -0.15000
F1243       F  0.44044782  0.84421239  0.30201039    -0.15000
F1244       F  0.42066897  0.74560481  0.37120307    -0.16400
C1245       C  0.36513470  0.68786142  0.63132605     0.13700
C1246       C  0.36051798  0.68637005  0.60039469     0.00600
C1247       C  0.33470625  0.67594890  0.58981372     0.15600
C1248       C  0.31544726  0.66338078  0.60971247     0.25000
C1249       C  0.32173781  0.66143985  0.64034275    -0.41300
C1250       C  0.34568218  0.67568536  0.65124372     0.32100
C1251       C  0.38383855  0.69191303  0.57931729     0.00700
F1252       F  0.32949169  0.67506496  0.56002166    -0.13600
F1253       F  0.35198314  0.67426942  0.68077992    -0.14100
C1254       C  0.40714932  0.67278172  0.57882792     0.15600
C1255       C  0.42924247  0.67760116  0.55875679     0.25000
C1256       C  0.42826206  0.70156469  0.53865091    -0.41200
C1257       C  0.40478987  0.72064049  0.53929974     0.32000
C1258       C  0.38271016  0.71565988  0.55925253     0.13700
F1259       F  0.40822464  0.64907755  0.59747530    -0.13600
F1260       F  0.40364907  0.74489297  0.52143916    -0.14100
F1261       F  0.45134593  0.65861331  0.55874619    -0.16400
F1262       F  0.36041977  0.73437582  0.55939231    -0.15000
F1263       F  0.38950469  0.69896818  0.64201905    -0.15000
F1264       F  0.29258485  0.64942442  0.59868680    -0.16400
C1265       C  0.84171015  0.56550766  0.82042864     0.13700
C1266       C  0.86840063  0.55804114  0.80933686     0.00600
C1267       C  0.87401242  0.56162941  0.77868494     0.15600
C1268       C  0.85430589  0.57543436  0.76010838     0.25000
C1269       C  0.82898319  0.58599237  0.77206646    -0.41300
C1270       C  0.82213388  0.57944034  0.80188866     0.32100
C1271       C  0.89122330  0.55061091  0.83050846     0.00700
F1272       F  0.89938734  0.55388654  0.76730705    -0.13600
F1273       F  0.79812063  0.59025589  0.81407188    -0.14100
C1274       C  0.88867323  0.52652984  0.85005742     0.15600
C1275       C  0.90871403  0.52157013  0.87230955     0.25000
C1276       C  0.93171462  0.54082165  0.87561437    -0.41200
C1277       C  0.93454765  0.56454692  0.85543515     0.32000
C1278       C  0.91447792  0.56939737  0.83315134     0.13700
F1279       F  0.86661892  0.50785838  0.84764732    -0.13600
F1280       F  0.95619252  0.58371995  0.85785540    -0.14100
F1281       F  0.90570712  0.49760305  0.89030820    -0.16400
F1282       F  0.91712117  0.59327293  0.81494139    -0.15000
F1283       F  0.83577732  0.56241886  0.84996102    -0.15000
F1284       F  0.86122053  0.58165297  0.73133375    -0.16400
C1285       C  0.89591460  0.74459363  0.84768591     0.13700
C1286       C  0.89703908  0.72189590  0.82655628     0.00600
C1287       C  0.91988584  0.70209318  0.82712516     0.15600
C1288       C  0.94058478  0.70424996  0.84914090     0.25000
C1289       C  0.93889801  0.72626228  0.87111291    -0.41300
C1290       C  0.91655296  0.74680066  0.86970556     0.32100
C1291       C  0.87301987  0.71665200  0.80619217     0.00700
F1292       F  0.92141244  0.67956749  0.80733464    -0.13600
F1293       F  0.91452805  0.76913869  0.88966376    -0.14100
C1294       C  0.87736871  0.71252258  0.77539797     0.15600
C1295       C  0.85628198  0.70013091  0.75782639     0.25000
C1296       C  0.83062479  0.69187984  0.77080276    -0.41200
C1297       C  0.82503643  0.69950688  0.80054576     0.32000
C1298       C  0.84613432  0.71161607  0.81822152     0.13700
F1299       F  0.90277608  0.71814491  0.76291928    -0.13600
F1300       F  0.80059403  0.69112797  0.81362179    -0.14100
F1301       F  0.86213489  0.69260343  0.72916242    -0.16400
F1302       F  0.84124171  0.71503936  0.84788920    -0.15000
F1303       F  0.87450946  0.76444172  0.84726489    -0.15000
F1304       F  0.96147133  0.68382685  0.84976067    -0.16400
C1305       C  0.63873683  0.57779180  0.59051178     0.13700
C1306       C  0.65877370  0.55679972  0.59970266     0.00600
C1307       C  0.66188620  0.53065101  0.58347673     0.15600
C1308       C  0.64420659  0.52485232  0.55926912     0.25000
C1309       C  0.62348623  0.54543439  0.55056290    -0.41300
C1310       C  0.62131790  0.57223798  0.56609872     0.32100
C1311       C  0.67608454  0.56260112  0.62639546     0.00700
F1312       F  0.68138411  0.51030780  0.59174158    -0.13600
F1313       F  0.60241871  0.59312663  0.55758076    -0.14100
C1314       C  0.66306518  0.56607108  0.65434235     0.15600
C1315       C  0.67761278  0.57899588  0.67791811     0.25000
C1316       C  0.70532429  0.58858436  0.67375520    -0.41200
C1317       C  0.71941095  0.58157410  0.64709455     0.32000
C1318       C  0.70481194  0.56871839  0.62343692     0.13700
F1319       F  0.63558918  0.55915415  0.65797981    -0.13600
F1320       F  0.74621215  0.59062357  0.64264111    -0.14100
F1321       F  0.66375837  0.58523957  0.70365671    -0.16400
F1322       F  0.71791959  0.56514537  0.59675123    -0.15000
F1323       F  0.63611141  0.60375722  0.60525416    -0.15000
F1324       F  0.65085697  0.00038288  0.54136719    -0.16400
C1325       C  0.68484313  0.72134710  0.64273853     0.13700
C1326       C  0.65644146  0.72123158  0.65129469     0.00600
C1327       C  0.64920203  0.71133112  0.68007321     0.15600
C1328       C  0.66938350  0.69763007  0.69812844     0.25000
C1329       C  0.69691118  0.69367862  0.68751814    -0.41300
C1330       C  0.70499717  0.70758833  0.66078165     0.32100
C1331       C  0.63459194  0.72484629  0.62804669     0.00700
F1332       F  0.62207009  0.71208634  0.68930556    -0.13600
F1333       F  0.73143502  0.70398471  0.65005210    -0.14100
C1334       C  0.61852185  0.70025875  0.61968951     0.15600
C1335       C  0.60157244  0.70134678  0.59421678     0.25000
C1336       C  0.60079154  0.72688053  0.57634110    -0.41200
C1337       C  0.61590735  0.75192216  0.58548918     0.32000
C1338       C  0.63254564  0.75093034  0.61120706     0.13700
F1339       F  0.62087148  0.67441507  0.63496544    -0.13600
F1340       F  0.61493597  0.77727083  0.56923148    -0.14100
F1341       F  0.58757443  0.67673652  0.58588054    -0.16400
F1342       F  0.64741925  0.77510248  0.61913183    -0.15000
F1343       F  0.69245926  0.73116161  0.61519746    -0.15000
F1344       F  0.66123211  0.68450571  0.72403863    -0.16400
loop_ 
_geom_bond_atom_site_label_1 
_geom_bond_atom_site_label_2 
_geom_bond_distance 
_geom_bond_site_symmetry_2 
_ccdc_geom_bond_type 
C1            C2   1.397       .  A
C1            C6   1.413       .  A
C1          C657   1.481       .  S
C2            C3   1.394       .  A
C2           H21   1.086       .  S
C3            C4   1.407       .  A
C3          C644   1.476       .  S
C4            C5   1.420       .  A
C4           C11   1.405       .  A
C5            C6   1.423       .  A
C5           C10   1.415       .  A
C6            C7   1.405       .  A
C7            C8   1.396       .  A
C7           H17   1.083       .  S
C8            C9   1.405       .  A
C8           H18   1.083       .  S
C9           C10   1.421       .  A
C9           C16   1.409       .  A
C10          C13   1.423       .  A
C11          C12   1.393       .  A
C11          H19   1.083       .  S
C12          C13   1.403       .  A
C12          H20   1.083       .  S
C13          C14   1.409       .  A
C14          C15   1.391       .  A
C14         C597   1.475       .  S
C15          C16   1.392       .  A
C15          H22   1.087       .  S
C16         C624   1.472       .  S
Zr23         O24   2.441       .  S
Zr23         O25   2.471       .  S
Zr23         O26   2.468       .  S
Zr23         O29   2.466       .  S
Zr23         O31   2.385       .  S
Zr23         O32   2.393       .  S
Zr23         O33   2.418       .  S
Zr23         O34   2.389       .  S
O24          H80   0.990       .  S
O24          H88   0.991       .  S
O25          C45   1.288       .  A
O26          C47   1.290       .  A
O27         Zr37   2.414       .  S
O27          C46   1.282       .  A
O28         Zr36   2.418       .  S
O28          C47   1.282       .  A
O29          C46   1.292       .  A
O30         Zr38   2.410       .  S
O30          C45   1.280       .  A
O31         Zr36   2.401       .  S
O31         Zr38   2.378       .  S
O32         Zr37   2.404       .  S
O32         Zr38   2.378       .  S
O32          H67   0.965       .  S
O33         Zr36   2.399       .  S
O33         Zr53   2.393       .  S
O33          H70   0.965       .  S
O34         Zr37   2.377       .  S
O34         Zr53   2.366       .  S
Zr35         O60   2.441       .  S
Zr35         O54   2.482       .  S
Zr35         O62   2.467       .  S
Zr35         O50   2.453       .  S
Zr35         O41   2.401       .  S
Zr35         O42   2.426       .  S
Zr35         O43   2.385       .  S
Zr35         O44   2.384       .  S
Zr36         O55   2.435       .  S
Zr36         O48   2.435       .  S
Zr36         O49   2.424       .  S
Zr36         O42   2.399       .  S
Zr36         O43   2.394       .  S
Zr37         O39   2.437       .  S
Zr37         O61   2.439       .  S
Zr37         O63   2.421       .  S
Zr37         O41   2.374       .  S
Zr37         O44   2.399       .  S
Zr38         O64   2.436       .  S
Zr38         O65   2.434       .  S
Zr38         O40   2.436       .  S
Zr38         O41   2.381       .  S
Zr38         O42   2.391       .  S
O39          H76   0.990       .  S
O40          H71   0.990       .  S
O40          H85   0.990       .  S
O42          H68   0.964       .  S
O43         Zr53   2.379       .  S
O44         Zr53   2.388       .  S
O44          H69   0.966       .  S
C45         C111   1.485       .  S
C46         C537   1.480       .  S
C47         C557   1.489       .  S
O48          H84   0.990       .  S
O49          C51   1.284       .  A
O50          C51   1.287       .  A
C51         C584   1.483       .  S
O52         Zr53   2.439       .  S
O52          H81   0.990       .  S
Zr53         O56   2.437       .  S
Zr53         O57   2.439       .  S
Zr53         O58   2.396       .  S
O54          C59   1.290       .  A
O55          H72   0.990       .  S
O55          H87   0.990       .  S
O56          H73   0.990       .  S
O57          H77   0.990       .  S
O57          H86   0.990       .  S
O58          C59   1.279       .  A
C59         C125   1.486       .  S
O60          H79   0.991       .  S
O60          H83   0.990       .  S
O61          H75   0.990       .  S
O61          H82   0.990       .  S
O62          C66   1.291       .  A
O63          C66   1.283       .  A
O64          H74   0.990       .  S
O65          H78   0.990       .  S
C66         C664   1.484       .  S
Zr89         O90   2.442       .  S
Zr89         O91   2.471       .  S
Zr89         O92   2.426       .  S
Zr89         O95   2.438       .  S
Zr89         O97   2.383       .  S
Zr89         O98   2.381       .  S
Zr89        O771   2.421       .  S
Zr89        O772   2.396       .  S
O90         H146   0.990       .  S
O90         H154   0.991       .  S
O91         C111   1.288       .  A
O92         C113   1.281       .  A
O93        Zr103   2.420       .  S
O93         C112   1.283       .  A
O94        Zr102   2.446       .  S
O94         C113   1.287       .  A
O95         C112   1.285       .  A
O96        Zr104   2.408       .  S
O96         C111   1.280       .  A
O97        Zr102   2.401       .  S
O97        Zr104   2.377       .  S
O98        Zr103   2.400       .  S
O98        Zr104   2.381       .  S
O98         H133   0.966       .  S
O99        Zr119   2.389       .  S
O99        Zr761   2.426   1_545  S
O99        Zr774   2.401   1_545  S
O99         H136   0.964       .  S
O100       Zr119   2.385       .  S
O100       Zr761   2.402   1_545  S
O100       Zr775   2.377       .  S
Zr101       O126   2.442       .  S
Zr101       O120   2.472       .  S
Zr101       O128   2.463       .  S
Zr101       O116   2.449       .  S
Zr101       O109   2.386       .  S
Zr101       O110   2.390       .  S
Zr101       O779   2.395   1_545  S
Zr101       O780   2.425   1_545  S
Zr102       O114   2.434       .  S
Zr102       O793   2.435       .  S
Zr102       O787   2.436       .  S
Zr102       O108   2.405       .  S
Zr102       O771   2.399       .  S
Zr102       O781   2.400       .  S
Zr103       O127   2.437       .  S
Zr103       O777   2.436       .  S
Zr103       O801   2.416       .  S
Zr103       O107   2.379       .  S
Zr103       O772   2.375       .  S
Zr103       O782   2.399       .  S
Zr104       O130   2.437       .  S
Zr104       O131   2.435       .  S
Zr104       O106   2.437       .  S
Zr104       O107   2.376       .  S
Zr104       O108   2.395       .  S
O105       Zr775   2.436       .  S
O105        H142   0.990       .  S
O106        H137   0.990       .  S
O106        H151   0.990       .  S
O107       Zr773   2.395       .  S
O108       Zr773   2.423       .  S
O108        H134   0.965       .  S
O109       Zr119   2.378       .  S
O109       Zr774   2.404   1_545  S
O110       Zr119   2.380       .  S
O110       Zr775   2.400       .  S
O110        H135   0.966       .  S
C112        C497   1.479       .  S
C113        C477   1.470       .  S
O114        H150   0.990       .  S
O115       Zr774   2.435   1_545  S
O115        C117   1.285       .  A
O116        C117   1.287       .  A
C117        C637   1.486       .  S
O118       Zr119   2.439       .  S
O118        H147   0.991       .  S
Zr119       O122   2.437       .  S
Zr119       O123   2.439       .  S
Zr119       O124   2.410       .  S
O120        C125   1.287       .  A
O121       Zr774   2.436   1_545  S
O121        H138   0.990       .  S
O121        H153   0.990       .  S
O122        H139   0.990       .  S
O123        H143   0.990       .  S
O123        H152   0.990       .  S
O124        C125   1.281       .  A
O126        H145   0.990       .  S
O126        H149   0.990       .  S
O127        H141   0.990       .  S
O127        H148   0.990       .  S
O128        C132   1.290       .  A
O129       Zr775   2.418       .  S
O129        C132   1.283       .  A
O130        H140   0.990       .  S
O131        H144   0.990       .  S
C132        C517   1.480       .  S
C155        C156   1.393       .  A
C155        C160   1.410       .  A
C155        C577   1.476       .  S
C156        C157   1.392       .  A
C156        H175   1.087       .  S
C157        C158   1.407       .  A
C157        C524   1.474       .  S
C158        C159   1.423       .  A
C158        C165   1.404       .  A
C159        C160   1.423       .  A
C159        C164   1.414       .  A
C160        C161   1.405       .  A
C161        C162   1.396       .  A
C161        H171   1.083       .  S
C162        C163   1.404       .  A
C162        H172   1.083       .  S
C163        C164   1.422       .  A
C163        C170   1.410       .  A
C164        C167   1.421       .  A
C165        C166   1.393       .  A
C165        H173   1.083       .  S
C166        C167   1.404       .  A
C166        H174   1.083       .  S
C167        C168   1.406       .  A
C168        C169   1.392       .  A
C168        C464   1.471       .  S
C169        C170   1.392       .  A
C169        H176   1.087       .  S
C170        C444   1.476       .  S
Zr177       O178   2.441       .  S
Zr177       O179   2.477   1_554  S
Zr177       O180   2.452       .  S
Zr177       O183   2.448   1_455  S
Zr177       O185   2.386   1_554  S
Zr177       O186   2.385   1_554  S
Zr177       O187   2.421       .  S
Zr177       O188   2.400       .  S
O178        H234   0.990       .  S
O178        H242   0.990       .  S
O179        C199   1.288       .  A
O180        C201   1.288       .  A
O181       Zr191   2.420   1_554  S
O181        C200   1.282       .  A
O182       Zr190   2.424   1_554  S
O182        C201   1.283       .  A
O183        C200   1.287       .  A
O184       Zr192   2.420       .  S
O184        C199   1.283       .  A
O185       Zr190   2.405       .  S
O185       Zr192   2.377       .  S
O186       Zr191   2.394   1_455  S
O186       Zr192   2.375       .  S
O186        H221   0.965   1_455  S
O187       Zr190   2.401   1_554  S
O187       Zr207   2.388       .  S
O187        H224   0.964       .  S
O188       Zr191   2.380   1_454  S
O188       Zr207   2.383       .  S
Zr189       O214   2.442       .  S
Zr189       O208   2.478       .  S
Zr189       O216   2.454   1_455  S
Zr189       O204   2.450       .  S
Zr189       O195   2.405       .  S
Zr189       O196   2.424       .  S
Zr189       O197   2.382       .  S
Zr189       O198   2.388   1_455  S
Zr190       O209   2.436       .  S
Zr190       O202   2.434       .  S
Zr190       O203   2.426       .  S
Zr190       O196   2.400       .  S
Zr190       O197   2.397       .  S
Zr191       O193   2.436       .  S
Zr191       O215   2.438       .  S
Zr191       O217   2.407       .  S
Zr191       O195   2.382   1_655  S
Zr191       O198   2.398       .  S
Zr192       O218   2.435   1_455  S
Zr192       O219   2.436       .  S
Zr192       O194   2.438       .  S
Zr192       O195   2.390       .  S
Zr192       O196   2.391       .  S
O193        H230   0.990       .  S
O194        H225   0.990       .  S
O194        H239   0.990       .  S
O196        H222   0.965       .  S
O197       Zr207   2.380   1_556  S
O198       Zr207   2.384   1_656  S
O198        H223   0.966       .  S
C199        C265   1.492       .  S
C200        C397   1.471       .  S
C201        C417   1.489       .  S
O202        H238   0.990       .  S
O203        C205   1.283       .  A
O204        C205   1.286       .  A
C205        C437   1.481       .  S
O206       Zr207   2.439       .  S
O206        H235   0.991       .  S
Zr207       O210   2.437       .  S
Zr207       O211   2.439   1_455  S
Zr207       O212   2.401   1_554  S
O208        C213   1.289       .  A
O209        H226   0.990       .  S
O209        H241   0.990   1_556  S
O210        H227   0.990       .  S
O211        H231   0.990       .  S
O211        H240   0.990       .  S
O212        C213   1.279       .  A
C213        C279   1.485       .  S
O214        H233   0.991       .  S
O214        H237   0.990       .  S
O215        H229   0.990       .  S
O215        H236   0.989       .  S
O216        C220   1.288       .  A
O217        C220   1.280       .  A
O218        H228   0.990       .  S
O219        H232   0.990       .  S
C220        C617   1.484       .  S
Zr243       O244   2.441       .  S
Zr243       O245   2.492   1_554  S
Zr243       O246   2.479   1_455  S
Zr243       O249   2.473       .  S
Zr243       O251   2.387   1_454  S
Zr243       O252   2.392   1_554  S
Zr243       O925   2.427   1_455  S
Zr243       O926   2.407       .  S
O244        H300   0.990       .  S
O244        H308   0.990       .  S
O245        C265   1.292       .  A
O246        C267   1.292       .  A
O247       Zr257   2.415   1_554  S
O247        C266   1.282       .  A
O248       Zr256   2.398   1_554  S
O248        C267   1.279       .  A
O249        C266   1.292       .  A
O250       Zr258   2.401       .  S
O250        C265   1.279       .  A
O251       Zr256   2.400       .  S
O251       Zr258   2.376   1_655  S
O252       Zr257   2.397       .  S
O252       Zr258   2.381       .  S
O252        H287   0.965       .  S
O253       Zr273   2.384   1_655  S
O253       Zr915   2.426   1_645  S
O253       Zr928   2.400   1_544  S
O253        H290   0.964       .  S
O254       Zr273   2.381       .  S
O254       Zr915   2.404   1_545  S
O254       Zr929   2.380   1_554  S
Zr255       O280   2.441       .  S
Zr255       O274   2.475       .  S
Zr255       O282   2.452       .  S
Zr255       O270   2.456   1_455  S
Zr255       O263   2.381   1_455  S
Zr255       O264   2.390       .  S
Zr255       O933   2.400   1_545  S
Zr255       O934   2.423   1_445  S
Zr256       O268   2.435       .  S
Zr256       O947   2.435       .  S
Zr256       O941   2.419       .  S
Zr256       O262   2.394       .  S
Zr256       O925   2.401   1_556  S
Zr256       O935   2.393       .  S
Zr257       O281   2.439       .  S
Zr257       O931   2.436       .  S
Zr257       O955   2.420       .  S
Zr257       O261   2.376       .  S
Zr257       O926   2.382   1_556  S
Zr257       O936   2.394       .  S
Zr258       O284   2.434       .  S
Zr258       O285   2.435       .  S
Zr258       O260   2.437   1_455  S
Zr258       O261   2.383       .  S
Zr258       O262   2.384   1_455  S
O259       Zr929   2.435       .  S
O259        H296   0.990       .  S
O260        H291   0.990       .  S
O260        H305   0.990       .  S
O261       Zr927   2.404       .  S
O262       Zr927   2.421   1_655  S
O262        H288   0.964       .  S
O263       Zr273   2.382   1_656  S
O263       Zr928   2.392   1_545  S
O264       Zr273   2.382   1_556  S
O264       Zr929   2.396       .  S
O264        H289   0.966       .  S
C266        C384   1.486       .  S
C267        C364   1.485       .  S
O268        H304   0.990       .  S
O269       Zr928   2.417   1_545  S
O269        C271   1.282       .  A
O270        C271   1.288       .  A
C271        C604   1.484       .  S
O272       Zr273   2.439       .  S
O272        H301   0.990       .  S
Zr273       O276   2.437   1_455  S
Zr273       O277   2.439       .  S
Zr273       O278   2.403   1_554  S
O274        C279   1.288       .  A
O275       Zr928   2.435   1_545  S
O275        H292   0.990       .  S
O275        H307   0.990   1_556  S
O276        H293   0.990       .  S
O277        H297   0.990       .  S
O277        H306   0.990       .  S
O278        C279   1.280       .  A
O280        H299   0.990       .  S
O280        H303   0.990       .  S
O281        H295   0.990       .  S
O281        H302   0.990       .  S
O282        C286   1.288       .  A
O283       Zr929   2.417       .  S
O283        C286   1.283       .  A
O284        H294   0.990       .  S
O285        H298   0.990       .  S
C286        C457   1.477       .  S
C309        C310   1.394       .  A
C309        C314   1.409       .  A
C309        C504   1.474       .  S
C310        C311   1.393       .  A
C310        H329   1.087       .  S
C311        C312   1.412       .  A
C311        C564   1.482       .  S
C312        C313   1.423       .  A
C312        C319   1.404       .  A
C313        C314   1.420       .  A
C313        C318   1.416       .  A
C314        C315   1.406       .  A
C315        C316   1.395       .  A
C315        H325   1.083       .  S
C316        C317   1.404       .  A
C316        H326   1.083       .  S
C317        C318   1.424       .  A
C317        C324   1.412       .  A
C318        C321   1.421       .  A
C319        C320   1.396       .  A
C319        H327   1.083       .  S
C320        C321   1.405       .  A
C320        H328   1.083       .  S
C321        C322   1.409       .  A
C322        C323   1.393       .  A
C322        C424   1.476       .  S
C323        C324   1.395       .  A
C323        H330   1.087       .  S
C324        C377   1.480       .  S
C331        C332   1.394       .  A
C331        C336   1.410       .  A
C331        C484   1.481       .  S
C332        C333   1.393       .  A
C332        H351   1.087       .  S
C333        C334   1.406       .  A
C333        C544   1.471       .  S
C334        C335   1.419       .  A
C334        C341   1.405       .  A
C335        C336   1.424       .  A
C335        C340   1.413       .  A
C336        C337   1.404       .  A
C337        C338   1.392       .  A
C337        H347   1.083       .  S
C338        C339   1.404       .  A
C338        H348   1.083       .  S
C339        C340   1.419       .  A
C339        C346   1.404       .  A
C340        C343   1.424       .  A
C341        C342   1.394       .  A
C341        H349   1.083       .  S
C342        C343   1.404       .  A
C342        H350   1.083       .  S
C343        C344   1.411       .  A
C344        C345   1.394       .  A
C344        C404   1.480       .  S
C345        C346   1.392       .  A
C345        H352   1.087       .  S
C346        C357   1.469       .  S
C353        C354   1.403       .  A
C353        C358   1.396       .  A
C353        F371   1.357       .  S
C354        C355   1.405       .  A
C354        C359   1.471       .  S
C355        C356   1.395       .  A
C355        F360   1.358       .  S
C356        C357   1.403       .  A
C356        F372   1.358       .  S
C357        C358   1.402       .  A
C358        F361   1.357       .  S
C359        C362   1.407       .  A
C359        C366   1.395       .  A
C362        C363   1.400       .  A
C362        F367   1.358       .  S
C363        C364   1.407       .  A
C363        F369   1.357       .  S
C364        C365   1.417       .  A
C365        C366   1.393       .  A
C365        F368   1.357       .  S
C366        F370   1.358       .  S
C373        C374   1.409       .  A
C373        C378   1.400       .  A
C373        F391   1.358       .  S
C374        C375   1.406       .  A
C374        C379   1.487       .  S
C375        C376   1.399       .  A
C375        F380   1.358       .  S
C376        C377   1.406       .  A
C376        F392   1.358       .  S
C377        C378   1.404       .  A
C378        F381   1.358       .  S
C379        C382   1.410       .  A
C379        C386   1.403       .  A
C382        C383   1.401       .  A
C382        F387   1.358       .  S
C383        C384   1.405       .  A
C383        F389   1.358       .  S
C384        C385   1.413       .  A
C385        C386   1.400       .  A
C385        F388   1.358       .  S
C386        F390   1.358       .  S
C393        C394   1.406       .  A
C393        C398   1.400       .  A
C393        F411   1.358       .  S
C394        C395   1.408       .  A
C394        C399   1.481       .  S
C395        C396   1.395       .  A
C395        F400   1.358       .  S
C396        C397   1.403       .  A
C396        F412   1.358       .  S
C397        C398   1.407       .  A
C398        F401   1.358       .  S
C399        C402   1.404       .  A
C399        C406   1.408       .  A
C402        C403   1.396       .  A
C402        F407   1.358       .  S
C403        C404   1.407       .  A
C403        F409   1.358       .  S
C404        C405   1.404       .  A
C405        C406   1.399       .  A
C405        F408   1.358       .  S
C406        F410   1.358       .  S
C413        C414   1.402       .  A
C413        C418   1.400       .  A
C413        F431   1.358       .  S
C414        C415   1.405       .  A
C414        C419   1.481       .  S
C415        C416   1.397       .  A
C415        F420   1.358       .  S
C416        C417   1.410       .  A
C416        F432   1.357       .  S
C417        C418   1.415       .  A
C418        F421   1.358       .  S
C419        C422   1.406       .  A
C419        C426   1.407       .  A
C422        C423   1.397       .  A
C422        F427   1.358       .  S
C423        C424   1.404       .  A
C423        F429   1.358       .  S
C424        C425   1.404       .  A
C425        C426   1.400       .  A
C425        F428   1.357       .  S
C426        F430   1.358       .  S
C433        C434   1.409       .  A
C433        C438   1.399       .  A
C433        F451   1.358       .  S
C434        C435   1.403       .  A
C434        C439   1.483       .  S
C435        C436   1.398       .  A
C435        F440   1.358       .  S
C436        C437   1.411       .  A
C436        F452   1.357       .  S
C437        C438   1.406       .  A
C438        F441   1.358       .  S
C439        C442   1.406       .  A
C439        C446   1.407       .  A
C442        C443   1.398       .  A
C442        F447   1.358       .  S
C443        C444   1.404       .  A
C443        F449   1.358       .  S
C444        C445   1.405       .  A
C445        C446   1.399       .  A
C445        F448   1.358       .  S
C446        F450   1.358       .  S
C453        C454   1.408       .  A
C453        C458   1.398       .  A
C453        F471   1.359       .  S
C454        C455   1.399       .  A
C454        C459   1.474       .  S
C455        C456   1.394       .  A
C455        F460   1.358   1_545  S
C456        C457   1.411       .  A
C456        F472   1.358   1_545  S
C457        C458   1.406       .  A
C458        F461   1.358       .  S
C459        C462   1.406       .  A
C459        C466   1.404       .  A
C462        C463   1.395       .  A
C462        F467   1.358       .  S
C463        C464   1.403       .  A
C463        F469   1.358       .  S
C464        C465   1.404       .  A
C465        C466   1.397       .  A
C465        F468   1.358       .  S
C466        F470   1.358       .  S
C473        C474   1.412       .  A
C473        C478   1.399       .  A
C473        F491   1.358       .  S
C474        C475   1.405       .  A
C474        C479   1.484       .  S
C475        C476   1.397       .  A
C475        F480   1.358       .  S
C476        C477   1.408       .  A
C476        F492   1.359       .  S
C477        C478   1.400       .  A
C478        F481   1.358       .  S
C479        C482   1.407       .  A
C479        C486   1.407       .  A
C482        C483   1.396       .  A
C482        F487   1.358       .  S
C483        C484   1.405       .  A
C483        F489   1.358       .  S
C484        C485   1.405       .  A
C485        C486   1.399       .  A
C485        F488   1.358       .  S
C486        F490   1.358       .  S
C493        C494   1.401       .  A
C493        C498   1.398       .  A
C493        F511   1.358       .  S
C494        C495   1.405       .  A
C494        C499   1.475       .  S
C495        C496   1.394       .  A
C495        F500   1.358       .  S
C496        C497   1.408       .  A
C496        F512   1.358       .  S
C497        C498   1.411       .  A
C498        F501   1.358       .  S
C499        C502   1.405       .  A
C499        C506   1.404       .  A
C502        C503   1.397       .  A
C502        F507   1.358       .  S
C503        C504   1.405       .  A
C503        F509   1.358       .  S
C504        C505   1.404       .  A
C505        C506   1.395       .  A
C505        F508   1.358       .  S
C506        F510   1.358       .  S
C513        C514   1.402       .  A
C513        C518   1.396       .  A
C513        F531   1.358   1_545  S
C514        C515   1.411       .  A
C514        C519   1.483       .  S
C515        C516   1.400       .  A
C515        F520   1.358       .  S
C516        C517   1.405       .  A
C516        F532   1.358       .  S
C517        C518   1.411       .  A
C518        F521   1.358   1_545  S
C519        C522   1.406       .  A
C519        C526   1.409       .  A
C522        C523   1.399       .  A
C522        F527   1.358       .  S
C523        C524   1.404       .  A
C523        F529   1.358       .  S
C524        C525   1.402       .  A
C525        C526   1.396       .  A
C525        F528   1.358       .  S
C526        F530   1.358       .  S
C533        C534   1.407       .  A
C533        C538   1.394       .  A
C533        F551   1.358       .  S
C534        C535   1.400       .  A
C534        C539   1.476       .  S
C535        C536   1.400       .  A
C535        F540   1.358       .  S
C536        C537   1.415       .  A
C536        F552   1.358       .  S
C537        C538   1.404       .  A
C538        F541   1.358       .  S
C539        C542   1.405       .  A
C539        C546   1.405       .  A
C542        C543   1.397       .  A
C542        F547   1.358       .  S
C543        C544   1.404       .  A
C543        F549   1.358       .  S
C544        C545   1.403       .  A
C545        C546   1.395       .  A
C545        F548   1.358       .  S
C546        F550   1.358       .  S
C553        C554   1.409       .  A
C553        C558   1.402       .  A
C553        F571   1.358       .  S
C554        C555   1.401       .  A
C554        C559   1.485       .  S
C555        C556   1.399       .  A
C555        F560   1.358       .  S
C556        C557   1.414       .  A
C556        F572   1.358       .  S
C557        C558   1.408       .  A
C558        F561   1.358       .  S
C559        C562   1.405       .  A
C559        C566   1.407       .  A
C562        C563   1.400       .  A
C562        F567   1.358       .  S
C563        C564   1.406       .  A
C563        F569   1.357       .  S
C564        C565   1.406       .  A
C565        C566   1.400       .  A
C565        F568   1.358       .  S
C566        F570   1.358       .  S
C573        C574   1.405       .  A
C573        C578   1.399       .  A
C573        F591   1.357       .  S
C574        C575   1.405       .  A
C574        C579   1.479       .  S
C575        C576   1.399       .  A
C575        F580   1.358       .  S
C576        C577   1.405       .  A
C576        F592   1.358       .  S
C577        C578   1.404       .  A
C578        F581   1.358       .  S
C579        C582   1.407       .  A
C579        C586   1.400       .  A
C582        C583   1.400       .  A
C582        F587   1.358       .  S
C583        C584   1.408       .  A
C583        F589   1.358       .  S
C584        C585   1.412       .  A
C585        C586   1.398       .  A
C585        F588   1.358       .  S
C586        F590   1.357       .  S
C593        C594   1.406       .  A
C593        C598   1.396       .  A
C593        F611   1.358       .  S
C594        C595   1.406       .  A
C594        C599   1.480       .  S
C595        C596   1.400       .  A
C595        F600   1.358       .  S
C596        C597   1.404       .  A
C596        F612   1.357       .  S
C597        C598   1.404       .  A
C598        F601   1.358       .  S
C599        C602   1.402       .  A
C599        C606   1.407       .  A
C602        C603   1.397       .  A
C602        F607   1.358       .  S
C603        C604   1.413       .  A
C603        F609   1.358   1_545  S
C604        C605   1.408       .  A
C605        C606   1.399       .  A
C605        F608   1.358       .  S
C606        F610   1.358       .  S
C613        C614   1.401       .  A
C613        C618   1.396       .  A
C613        F631   1.358       .  S
C614        C615   1.408       .  A
C614        C619   1.480       .  S
C615        C616   1.398       .  A
C615        F620   1.358       .  S
C616        C617   1.407       .  A
C616        F632   1.357       .  S
C617        C618   1.414       .  A
C618        F621   1.358       .  S
C619        C622   1.406       .  A
C619        C626   1.408       .  A
C622        C623   1.397       .  A
C622        F627   1.358       .  S
C623        C624   1.403       .  A
C623        F629   1.358       .  S
C624        C625   1.403       .  A
C625        C626   1.396       .  A
C625        F628   1.358       .  S
C626        F630   1.358       .  S
C633        C634   1.405       .  A
C633        C638   1.397       .  A
C633        F651   1.359       .  S
C634        C635   1.403       .  A
C634        C639   1.479       .  S
C635        C636   1.402       .  A
C635        F640   1.358       .  S
C636        C637   1.413       .  A
C636       F1324   1.357       .  S
C637        C638   1.409       .  A
C638        F641   1.358       .  S
C639        C642   1.407       .  A
C639        C646   1.404       .  A
C642        C643   1.398       .  A
C642        F647   1.358       .  S
C643        C644   1.403       .  A
C643        F649   1.358       .  S
C644        C645   1.405       .  A
C645        C646   1.398       .  A
C645        F648   1.358       .  S
C646        F650   1.358       .  S
F652       C1308   1.357       .  S
C653        C654   1.408       .  A
C653        C658   1.400       .  A
C653        F671   1.358       .  S
C654        C655   1.405       .  A
C654        C659   1.485       .  S
C655        C656   1.399       .  A
C655        F660   1.358       .  S
C656        C657   1.406       .  A
C656        F672   1.358       .  S
C657        C658   1.404       .  A
C658        F661   1.358       .  S
C659        C662   1.410       .  A
C659        C666   1.403       .  A
C662        C663   1.400       .  A
C662        F667   1.358       .  S
C663        C664   1.405       .  A
C663        F669   1.358       .  S
C664        C665   1.412       .  A
C665        C666   1.401       .  A
C665        F668   1.358       .  S
C666        F670   1.358       .  S
C673        C674   1.395       .  A
C673        C678   1.412       .  A
C673       C1329   1.480       .  S
C674        C675   1.394       .  A
C674        H693   1.086       .  S
C675        C676   1.409       .  A
C675       C1316   1.479       .  S
C676        C677   1.421       .  A
C676        C683   1.405       .  A
C677        C678   1.422       .  A
C677        C682   1.415       .  A
C678        C679   1.405       .  A
C679        C680   1.396       .  A
C679        H689   1.083       .  S
C680        C681   1.405       .  A
C680        H690   1.083       .  S
C681        C682   1.422       .  A
C681        C688   1.411       .  A
C682        C685   1.422       .  A
C683        C684   1.394       .  A
C683        H691   1.083       .  S
C684        C685   1.403       .  A
C684        H692   1.083       .  S
C685        C686   1.408       .  A
C686        C687   1.391       .  A
C686       C1269   1.474       .  S
C687        C688   1.392       .  A
C687        H694   1.087       .  S
C688       C1296   1.475       .  S
Zr695       O696   2.440       .  S
Zr695       O697   2.477       .  S
Zr695       O698   2.464       .  S
Zr695       O701   2.462       .  S
Zr695       O703   2.387       .  S
Zr695       O704   2.390       .  S
Zr695       O705   2.421       .  S
Zr695       O706   2.396       .  S
O696        H752   0.990       .  S
O696        H760   0.991       .  S
O697        C717   1.289       .  A
O698        C719   1.290       .  A
O699       Zr709   2.413       .  S
O699        C718   1.282       .  A
O700       Zr708   2.416       .  S
O700        C719   1.282       .  A
O701        C718   1.291       .  A
O702       Zr710   2.421       .  S
O702        C717   1.284       .  A
O703       Zr708   2.403       .  S
O703       Zr710   2.377       .  S
O704       Zr709   2.398       .  S
O704       Zr710   2.375       .  S
O704        H739   0.965       .  S
O705       Zr708   2.402       .  S
O705       Zr725   2.389       .  S
O705        H742   0.965       .  S
O706       Zr709   2.381       .  S
O706       Zr725   2.370       .  S
Zr707       O732   2.442       .  S
Zr707       O726   2.476       .  S
Zr707       O734   2.461       .  S
Zr707       O722   2.452       .  S
Zr707       O713   2.400       .  S
Zr707       O714   2.426       .  S
Zr707       O715   2.384       .  S
Zr707       O716   2.387       .  S
Zr708       O727   2.436       .  S
Zr708       O720   2.433       .  S
Zr708       O721   2.427       .  S
Zr708       O714   2.396       .  S
Zr708       O715   2.394       .  S
Zr709       O711   2.436       .  S
Zr709       O733   2.440       .  S
Zr709       O735   2.419       .  S
Zr709       O713   2.369       .  S
Zr709       O716   2.400       .  S
Zr710       O736   2.434       .  S
Zr710       O737   2.436       .  S
Zr710       O712   2.437       .  S
Zr710       O713   2.382       .  S
Zr710       O714   2.393       .  S
O711        H748   0.990       .  S
O712        H743   0.990       .  S
O712        H757   0.990       .  S
O714        H740   0.964       .  S
O715       Zr725   2.381       .  S
O716       Zr725   2.388       .  S
O716        H741   0.966       .  S
C717        C783   1.492       .  S
C718       C1209   1.482       .  S
C719       C1229   1.487       .  S
O720        H756   0.990       .  S
O721        C723   1.284       .  A
O722        C723   1.287       .  A
C723       C1256   1.483       .  S
O724       Zr725   2.440       .  S
O724        H753   0.991       .  S
Zr725       O728   2.438       .  S
Zr725       O729   2.440       .  S
Zr725       O730   2.392       .  S
O726        C731   1.289       .  A
O727        H744   0.990       .  S
O727        H759   0.990       .  S
O728        H745   0.990       .  S
O729        H749   0.990       .  S
O729        H758   0.990       .  S
O730        C731   1.278       .  A
C731        C797   1.481       .  S
O732        H751   0.990       .  S
O732        H755   0.990       .  S
O733        H747   0.990       .  S
O733        H754   0.990       .  S
O734        C738   1.289       .  A
O735        C738   1.283       .  A
O736        H746   0.990       .  S
O737        H750   0.990       .  S
C738       C1336   1.480       .  S
Zr761       O762   2.442       .  S
Zr761       O763   2.487       .  S
Zr761       O764   2.441       .  S
Zr761       O767   2.448       .  S
Zr761       O769   2.385       .  S
Zr761       O770   2.383       .  S
O762        H818   0.990       .  S
O762        H826   0.991       .  S
O763        C783   1.291       .  A
O764        C785   1.284       .  A
O765       Zr775   2.421   1_565  S
O765        C784   1.283       .  A
O766       Zr774   2.447       .  S
O766        C785   1.287       .  A
O767        C784   1.287       .  A
O768       Zr776   2.407       .  S
O768        C783   1.280       .  A
O769       Zr774   2.403       .  S
O769       Zr776   2.380       .  S
O770       Zr775   2.401   1_565  S
O770       Zr776   2.384       .  S
O770        H805   0.966       .  S
O771       Zr791   2.386       .  S
O771        H808   0.964       .  S
O772       Zr791   2.381       .  S
Zr773       O798   2.442       .  S
Zr773       O792   2.465       .  S
Zr773       O800   2.452       .  S
Zr773       O788   2.444       .  S
Zr773       O781   2.383       .  S
Zr773       O782   2.387       .  S
Zr774       O786   2.435       .  S
Zr774       O780   2.406       .  S
Zr775       O799   2.437   1_545  S
Zr775       O779   2.378   1_545  S
Zr776       O802   2.437       .  S
Zr776       O803   2.435       .  S
Zr776       O778   2.436       .  S
Zr776       O779   2.375       .  S
Zr776       O780   2.391       .  S
O777        H814   0.990       .  S
O778        H809   0.990       .  S
O778        H823   0.990       .  S
O780        H806   0.965       .  S
O781       Zr791   2.378       .  S
O782       Zr791   2.382       .  S
O782        H807   0.966       .  S
C784       C1169   1.485       .  S
C785       C1149   1.476       .  S
O786        H822   0.990       .  S
O787        C789   1.285       .  A
O788        C789   1.285       .  A
C789       C1309   1.482       .  S
O790       Zr791   2.439       .  S
O790        H819   0.990       .  S
Zr791       O794   2.438       .  S
Zr791       O795   2.439       .  S
Zr791       O796   2.404       .  S
O792        C797   1.286       .  A
O793        H810   0.990       .  S
O793        H825   0.990       .  S
O794        H811   0.990       .  S
O795        H815   0.990       .  S
O795        H824   0.990       .  S
O796        C797   1.280       .  A
O798        H817   0.991       .  S
O798        H821   0.990       .  S
O799        H813   0.990       .  S
O799        H820   0.990       .  S
O800        C804   1.288       .  A
O801        C804   1.283       .  A
O802        H812   0.990       .  S
O803        H816   0.990       .  S
C804       C1189   1.475       .  S
C827        C828   1.392       .  A
C827        C832   1.411       .  A
C827       C1249   1.476       .  S
C828        C829   1.391       .  A
C828        H847   1.087       .  S
C829        C830   1.408       .  A
C829       C1196   1.472       .  S
C830        C831   1.422       .  A
C830        C837   1.405       .  A
C831        C832   1.424       .  A
C831        C836   1.415       .  A
C832        C833   1.404       .  A
C833        C834   1.397       .  A
C833        H843   1.083       .  S
C834        C835   1.404       .  A
C834        H844   1.083       .  S
C835        C836   1.423       .  A
C835        C842   1.411       .  A
C836        C839   1.423       .  A
C837        C838   1.395       .  A
C837        H845   1.083       .  S
C838        C839   1.404       .  A
C838        H846   1.083       .  S
C839        C840   1.409       .  A
C840        C841   1.392       .  A
C840       C1136   1.473       .  S
C841        C842   1.390       .  A
C841        H848   1.087       .  S
C842       C1116   1.477       .  S
Zr849       O850   2.441       .  S
Zr849       O851   2.476   1_554  S
Zr849       O852   2.454       .  S
Zr849       O855   2.454   1_455  S
Zr849       O857   2.389   1_554  S
Zr849       O858   2.388   1_554  S
Zr849       O859   2.423       .  S
Zr849       O860   2.397       .  S
O850        H906   0.990       .  S
O850        H914   0.990       .  S
O851        C871   1.288       .  A
O852        C873   1.288       .  A
O853       Zr863   2.421   1_554  S
O853        C872   1.283       .  A
O854       Zr862   2.424   1_554  S
O854        C873   1.283       .  A
O855        C872   1.288       .  A
O856       Zr864   2.411       .  S
O856        C871   1.281       .  A
O857       Zr862   2.404       .  S
O857       Zr864   2.377       .  S
O858       Zr863   2.393   1_455  S
O858       Zr864   2.379       .  S
O858        H893   0.965   1_455  S
O859       Zr862   2.404   1_554  S
O859       Zr879   2.387       .  S
O859        H896   0.964       .  S
O860       Zr863   2.382   1_454  S
O860       Zr879   2.380       .  S
Zr861       O886   2.441       .  S
Zr861       O880   2.480       .  S
Zr861       O888   2.459   1_455  S
Zr861       O876   2.454       .  S
Zr861       O867   2.410       .  S
Zr861       O868   2.425       .  S
Zr861       O869   2.383       .  S
Zr861       O870   2.386   1_455  S
Zr862       O881   2.436       .  S
Zr862       O874   2.435       .  S
Zr862       O875   2.439       .  S
Zr862       O868   2.400       .  S
Zr862       O869   2.398       .  S
Zr863       O865   2.435       .  S
Zr863       O887   2.439       .  S
Zr863       O889   2.413       .  S
Zr863       O867   2.385   1_655  S
Zr863       O870   2.401       .  S
Zr864       O890   2.434   1_455  S
Zr864       O891   2.435       .  S
Zr864       O866   2.437       .  S
Zr864       O867   2.393       .  S
Zr864       O868   2.383       .  S
O865        H902   0.990       .  S
O866        H897   0.990       .  S
O866        H911   0.990       .  S
O868        H894   0.964       .  S
O869       Zr879   2.380   1_556  S
O870       Zr879   2.384   1_656  S
O870        H895   0.966       .  S
C871        C937   1.489       .  S
C872       C1069   1.474       .  S
C873       C1089   1.490       .  S
O874        H910   0.990       .  S
O875        C877   1.286       .  A
O876        C877   1.288       .  A
C877       C1109   1.487       .  S
O878       Zr879   2.439       .  S
O878        H907   0.991       .  S
Zr879       O882   2.438       .  S
Zr879       O883   2.440   1_455  S
Zr879       O884   2.393   1_554  S
O880        C885   1.289       .  A
O881        H898   0.990       .  S
O881        H913   0.990   1_556  S
O882        H899   0.990       .  S
O883        H903   0.990       .  S
O883        H912   0.990       .  S
O884        C885   1.277       .  A
C885        C951   1.484       .  S
O886        H905   0.990       .  S
O886        H909   0.990       .  S
O887        H901   0.990       .  S
O887        H908   0.990       .  S
O888        C892   1.290       .  A
O889        C892   1.282       .  A
O890        H900   0.990       .  S
O891        H904   0.990       .  S
C892       C1289   1.488       .  S
Zr915       O916   2.441       .  S
Zr915       O917   2.484   1_554  S
Zr915       O918   2.468   1_455  S
Zr915       O921   2.469       .  S
Zr915       O923   2.388   1_454  S
Zr915       O924   2.389   1_554  S
O916        H972   0.990       .  S
O916        H980   0.990       .  S
O917        C937   1.290       .  A
O918        C939   1.290       .  A
O919       Zr929   2.416   1_564  S
O919        C938   1.282       .  A
O920       Zr928   2.402   1_554  S
O920        C939   1.279       .  A
O921        C938   1.292       .  A
O922       Zr930   2.402       .  S
O922        C937   1.279       .  A
O923       Zr928   2.400       .  S
O923       Zr930   2.376   1_655  S
O924       Zr929   2.398   1_565  S
O924       Zr930   2.379       .  S
O924        H959   0.965       .  S
O925       Zr945   2.388   1_655  S
O925        H962   0.964       .  S
O926       Zr945   2.383       .  S
Zr927       O952   2.441       .  S
Zr927       O946   2.472       .  S
Zr927       O954   2.454       .  S
Zr927       O942   2.462   1_455  S
Zr927       O935   2.384   1_455  S
Zr927       O936   2.392       .  S
Zr928       O940   2.435       .  S
Zr928       O934   2.392       .  S
Zr929       O953   2.440   1_545  S
Zr929       O933   2.377   1_545  S
Zr930       O956   2.436       .  S
Zr930       O957   2.436       .  S
Zr930       O932   2.438   1_455  S
Zr930       O933   2.380       .  S
Zr930       O934   2.389   1_455  S
O931        H968   0.990       .  S
O932        H963   0.990       .  S
O932        H977   0.990       .  S
O934        H960   0.964       .  S
O935       Zr945   2.382   1_656  S
O936       Zr945   2.383   1_556  S
O936        H961   0.966       .  S
C938       C1056   1.485       .  S
C939       C1036   1.484       .  S
O940        H976   0.990       .  S
O941        C943   1.282       .  A
O942        C943   1.289       .  A
C943       C1276   1.486       .  S
O944       Zr945   2.440       .  S
O944        H973   0.990       .  S
Zr945       O948   2.438   1_455  S
Zr945       O949   2.440       .  S
Zr945       O950   2.406   1_554  S
O946        C951   1.287       .  A
O947        H964   0.990       .  S
O947        H979   0.990   1_556  S
O948        H965   0.990       .  S
O949        H969   0.990       .  S
O949        H978   0.990       .  S
O950        C951   1.281       .  A
O952        H971   0.990       .  S
O952        H975   0.990       .  S
O953        H967   0.990       .  S
O953        H974   0.990       .  S
O954        C958   1.288       .  A
O955        C958   1.283       .  A
O956        H966   0.990       .  S
O957        H970   0.990       .  S
C958       C1129   1.483       .  S
C981        C982   1.395       .  A
C981        C986   1.410       .  A
C981       C1176   1.476       .  S
C982        C983   1.394       .  A
C982       H1001   1.087       .  S
C983        C984   1.411       .  A
C983       C1236   1.480       .  S
C984        C985   1.422       .  A
C984        C991   1.404       .  A
C985        C986   1.420       .  A
C985        C990   1.416       .  A
C986        C987   1.405       .  A
C987        C988   1.395       .  A
C987        H997   1.083       .  S
C988        C989   1.404       .  A
C988        H998   1.083       .  S
C989        C990   1.423       .  A
C989        C996   1.412       .  A
C990        C993   1.421       .  A
C991        C992   1.395       .  A
C991        H999   1.083       .  S
C992        C993   1.405       .  A
C992       H1000   1.083       .  S
C993        C994   1.409       .  A
C994        C995   1.392       .  A
C994       C1096   1.475       .  S
C995        C996   1.394       .  A
C995       H1002   1.087       .  S
C996       C1049   1.477       .  S
C1003      C1004   1.393       .  A
C1003      C1008   1.412       .  A
C1003      C1156   1.483       .  S
C1004      C1005   1.394       .  A
C1004      H1023   1.087       .  S
C1005      C1006   1.404       .  A
C1005      C1216   1.470       .  S
C1006      C1007   1.419       .  A
C1006      C1013   1.404       .  A
C1007      C1008   1.424       .  A
C1007      C1012   1.413       .  A
C1008      C1009   1.404       .  A
C1009      C1010   1.395       .  A
C1009      H1019   1.083       .  S
C1010      C1011   1.405       .  A
C1010      H1020   1.083       .  S
C1011      C1012   1.419       .  A
C1011      C1018   1.406       .  A
C1012      C1015   1.424       .  A
C1013      C1014   1.391       .  A
C1013      H1021   1.083       .  S
C1014      C1015   1.403       .  A
C1014      H1022   1.083       .  S
C1015      C1016   1.408       .  A
C1016      C1017   1.393       .  A
C1016      C1076   1.478       .  S
C1017      C1018   1.392       .  A
C1017      H1024   1.087       .  S
C1018      C1029   1.470       .  S
C1025      C1026   1.403       .  A
C1025      C1030   1.396       .  A
C1025      F1043   1.357       .  S
C1026      C1027   1.405       .  A
C1026      C1031   1.473       .  S
C1027      C1028   1.395       .  A
C1027      F1032   1.359       .  S
C1028      C1029   1.404       .  A
C1028      F1044   1.358       .  S
C1029      C1030   1.402       .  A
C1030      F1033   1.357       .  S
C1031      C1034   1.407       .  A
C1031      C1038   1.397       .  A
C1034      C1035   1.399       .  A
C1034      F1039   1.358       .  S
C1035      C1036   1.407       .  A
C1035      F1041   1.357       .  S
C1036      C1037   1.416       .  A
C1037      C1038   1.393       .  A
C1037      F1040   1.357       .  S
C1038      F1042   1.358       .  S
C1045      C1046   1.407       .  A
C1045      C1050   1.398       .  A
C1045      F1063   1.358       .  S
C1046      C1047   1.406       .  A
C1046      C1051   1.484       .  S
C1047      C1048   1.399       .  A
C1047      F1052   1.358       .  S
C1048      C1049   1.405       .  A
C1048      F1064   1.358       .  S
C1049      C1050   1.403       .  A
C1050      F1053   1.358       .  S
C1051      C1054   1.409       .  A
C1051      C1058   1.402       .  A
C1054      C1055   1.400       .  A
C1054      F1059   1.358       .  S
C1055      C1056   1.406       .  A
C1055      F1061   1.358       .  S
C1056      C1057   1.413       .  A
C1057      C1058   1.400       .  A
C1057      F1060   1.358   1_565  S
C1058      F1062   1.358   1_565  S
C1065      C1066   1.405       .  A
C1065      C1070   1.400       .  A
C1065      F1083   1.358       .  S
C1066      C1067   1.408       .  A
C1066      C1071   1.481       .  S
C1067      C1068   1.395       .  A
C1067      F1072   1.359       .  S
C1068      C1069   1.404       .  A
C1068      F1084   1.358       .  S
C1069      C1070   1.408       .  A
C1070      F1073   1.358       .  S
C1071      C1074   1.405       .  A
C1071      C1078   1.408       .  A
C1074      C1075   1.395       .  A
C1074      F1079   1.358       .  S
C1075      C1076   1.406       .  A
C1075      F1081   1.358       .  S
C1076      C1077   1.403       .  A
C1077      C1078   1.399       .  A
C1077      F1080   1.358       .  S
C1078      F1082   1.358       .  S
C1085      C1086   1.402       .  A
C1085      C1090   1.398       .  A
C1085      F1103   1.358       .  S
C1086      C1087   1.405       .  A
C1086      C1091   1.480       .  S
C1087      C1088   1.397       .  A
C1087      F1092   1.358       .  S
C1088      C1089   1.410       .  A
C1088      F1104   1.357       .  S
C1089      C1090   1.415       .  A
C1090      F1093   1.358       .  S
C1091      C1094   1.405       .  A
C1091      C1098   1.407       .  A
C1094      C1095   1.396       .  A
C1094      F1099   1.358       .  S
C1095      C1096   1.404       .  A
C1095      F1101   1.358       .  S
C1096      C1097   1.403       .  A
C1097      C1098   1.400       .  A
C1097      F1100   1.357       .  S
C1098      F1102   1.358       .  S
C1105      C1106   1.408       .  A
C1105      C1110   1.400       .  A
C1105      F1123   1.358       .  S
C1106      C1107   1.405       .  A
C1106      C1111   1.488       .  S
C1107      C1108   1.400       .  A
C1107      F1112   1.358       .  S
C1108      C1109   1.411       .  A
C1108      F1124   1.357       .  S
C1109      C1110   1.408       .  A
C1110      F1113   1.358       .  S
C1111      C1114   1.409       .  A
C1111      C1118   1.407       .  A
C1114      C1115   1.401       .  A
C1114      F1119   1.358       .  S
C1115      C1116   1.404       .  A
C1115      F1121   1.358       .  S
C1116      C1117   1.404       .  A
C1117      C1118   1.398       .  A
C1117      F1120   1.358       .  S
C1118      F1122   1.358       .  S
C1125      C1126   1.408       .  A
C1125      C1130   1.402       .  A
C1125      F1143   1.359       .  S
C1126      C1127   1.399       .  A
C1126      C1131   1.478       .  S
C1127      C1128   1.394       .  A
C1127      F1132   1.358       .  S
C1128      C1129   1.412       .  A
C1128      F1144   1.358       .  S
C1129      C1130   1.408       .  A
C1130      F1133   1.358       .  S
C1131      C1134   1.405       .  A
C1131      C1138   1.404       .  A
C1134      C1135   1.396       .  A
C1134      F1139   1.358       .  S
C1135      C1136   1.404       .  A
C1135      F1141   1.358       .  S
C1136      C1137   1.405       .  A
C1137      C1138   1.399       .  A
C1137      F1140   1.358       .  S
C1138      F1142   1.358       .  S
C1145      C1146   1.413       .  A
C1145      C1150   1.401       .  A
C1145      F1163   1.358       .  S
C1146      C1147   1.407       .  A
C1146      C1151   1.491       .  S
C1147      C1148   1.400       .  A
C1147      F1152   1.358       .  S
C1148      C1149   1.408       .  A
C1148      F1164   1.358       .  S
C1149      C1150   1.401       .  A
C1150      F1153   1.358       .  S
C1151      C1154   1.410       .  A
C1151      C1158   1.408       .  A
C1154      C1155   1.399       .  A
C1154      F1159   1.358       .  S
C1155      C1156   1.405       .  A
C1155      F1161   1.358       .  S
C1156      C1157   1.404       .  A
C1157      C1158   1.400       .  A
C1157      F1160   1.358       .  S
C1158      F1162   1.358       .  S
C1165      C1166   1.403       .  A
C1165      C1170   1.400       .  A
C1165      F1183   1.358   1_565  S
C1166      C1167   1.405       .  A
C1166      C1171   1.480       .  S
C1167      C1168   1.396       .  A
C1167      F1172   1.358       .  S
C1168      C1169   1.409       .  A
C1168      F1184   1.357       .  S
C1169      C1170   1.413       .  A
C1170      F1173   1.358   1_565  S
C1171      C1174   1.407       .  A
C1171      C1178   1.405       .  A
C1174      C1175   1.398       .  A
C1174      F1179   1.358       .  S
C1175      C1176   1.404       .  A
C1175      F1181   1.358       .  S
C1176      C1177   1.405       .  A
C1177      C1178   1.397       .  A
C1177      F1180   1.358       .  S
C1178      F1182   1.358       .  S
C1185      C1186   1.402       .  A
C1185      C1190   1.394       .  A
C1185      F1203   1.358       .  S
C1186      C1187   1.410       .  A
C1186      C1191   1.480       .  S
C1187      C1188   1.398       .  A
C1187      F1192   1.358       .  S
C1188      C1189   1.404       .  A
C1188      F1204   1.358       .  S
C1189      C1190   1.409       .  A
C1190      F1193   1.358       .  S
C1191      C1194   1.405       .  A
C1191      C1198   1.408       .  A
C1194      C1195   1.398       .  A
C1194      F1199   1.358       .  S
C1195      C1196   1.405       .  A
C1195      F1201   1.358       .  S
C1196      C1197   1.402       .  A
C1197      C1198   1.395       .  A
C1197      F1200   1.358       .  S
C1198      F1202   1.358       .  S
C1205      C1206   1.406       .  A
C1205      C1210   1.395       .  A
C1205      F1223   1.359       .  S
C1206      C1207   1.400       .  A
C1206      C1211   1.474       .  S
C1207      C1208   1.397       .  A
C1207      F1212   1.358       .  S
C1208      C1209   1.415       .  A
C1208      F1224   1.358       .  S
C1209      C1210   1.406       .  A
C1210      F1213   1.358       .  S
C1211      C1214   1.405       .  A
C1211      C1218   1.405       .  A
C1214      C1215   1.396       .  A
C1214      F1219   1.358       .  S
C1215      C1216   1.403       .  A
C1215      F1221   1.358       .  S
C1216      C1217   1.403       .  A
C1217      C1218   1.395       .  A
C1217      F1220   1.358       .  S
C1218      F1222   1.358       .  S
C1225      C1226   1.408       .  A
C1225      C1230   1.400       .  A
C1225      F1243   1.358       .  S
C1226      C1227   1.402       .  A
C1226      C1231   1.484       .  S
C1227      C1228   1.399       .  A
C1227      F1232   1.358       .  S
C1228      C1229   1.414       .  A
C1228      F1244   1.358       .  S
C1229      C1230   1.408       .  A
C1230      F1233   1.358       .  S
C1231      C1234   1.406       .  A
C1231      C1238   1.407       .  A
C1234      C1235   1.400       .  A
C1234      F1239   1.358       .  S
C1235      C1236   1.405       .  A
C1235      F1241   1.357       .  S
C1236      C1237   1.405       .  A
C1237      C1238   1.398       .  A
C1237      F1240   1.358       .  S
C1238      F1242   1.358       .  S
C1245      C1246   1.404       .  A
C1245      C1250   1.399       .  A
C1245      F1263   1.358       .  S
C1246      C1247   1.404       .  A
C1246      C1251   1.479       .  S
C1247      C1248   1.399       .  A
C1247      F1252   1.358       .  S
C1248      C1249   1.406       .  A
C1248      F1264   1.358       .  S
C1249      C1250   1.404       .  A
C1250      F1253   1.357       .  S
C1251      C1254   1.407       .  A
C1251      C1258   1.400       .  A
C1254      C1255   1.401       .  A
C1254      F1259   1.358       .  S
C1255      C1256   1.408       .  A
C1255      F1261   1.358       .  S
C1256      C1257   1.412       .  A
C1257      C1258   1.398       .  A
C1257      F1260   1.357       .  S
C1258      F1262   1.357       .  S
C1265      C1266   1.406       .  A
C1265      C1270   1.397       .  A
C1265      F1283   1.358       .  S
C1266      C1267   1.406       .  A
C1266      C1271   1.481       .  S
C1267      C1268   1.399       .  A
C1267      F1272   1.358       .  S
C1268      C1269   1.403       .  A
C1268      F1284   1.358       .  S
C1269      C1270   1.404       .  A
C1270      F1273   1.358       .  S
C1271      C1274   1.401       .  A
C1271      C1278   1.407       .  A
C1274      C1275   1.398       .  A
C1274      F1279   1.358       .  S
C1275      C1276   1.413       .  A
C1275      F1281   1.358       .  S
C1276      C1277   1.408       .  A
C1277      C1278   1.399       .  A
C1277      F1280   1.358       .  S
C1278      F1282   1.358       .  S
C1285      C1286   1.403       .  A
C1285      C1290   1.398       .  A
C1285      F1303   1.358       .  S
C1286      C1287   1.409       .  A
C1286      C1291   1.486       .  S
C1287      C1288   1.400       .  A
C1287      F1292   1.358       .  S
C1288      C1289   1.408       .  A
C1288      F1304   1.357       .  S
C1289      C1290   1.413       .  A
C1290      F1293   1.358       .  S
C1291      C1294   1.407       .  A
C1291      C1298   1.409       .  A
C1294      C1295   1.399       .  A
C1294      F1299   1.358       .  S
C1295      C1296   1.405       .  A
C1295      F1301   1.358       .  S
C1296      C1297   1.402       .  A
C1297      C1298   1.397       .  A
C1297      F1300   1.358       .  S
C1298      F1302   1.358       .  S
C1305      C1306   1.406       .  A
C1305      C1310   1.398       .  A
C1305      F1323   1.359       .  S
C1306      C1307   1.402       .  A
C1306      C1311   1.479       .  S
C1307      C1308   1.401       .  A
C1307      F1312   1.357       .  S
C1308      C1309   1.410       .  A
C1309      C1310   1.408       .  A
C1310      F1313   1.358       .  S
C1311      C1314   1.405       .  A
C1311      C1318   1.405       .  A
C1314      C1315   1.397       .  A
C1314      F1319   1.358       .  S
C1315      C1316   1.405       .  A
C1315      F1321   1.358       .  S
C1316      C1317   1.406       .  A
C1317      C1318   1.400       .  A
C1317      F1320   1.358       .  S
C1318      F1322   1.358       .  S
C1325      C1326   1.407       .  A
C1325      C1330   1.399       .  A
C1325      F1343   1.358       .  S
C1326      C1327   1.405       .  A
C1326      C1331   1.482       .  S
C1327      C1328   1.399       .  A
C1327      F1332   1.358       .  S
C1328      C1329   1.406       .  A
C1328      F1344   1.358       .  S
C1329      C1330   1.404       .  A
C1330      F1333   1.358       .  S
C1331      C1334   1.409       .  A
C1331      C1338   1.403       .  A
C1334      C1335   1.399       .  A
C1334      F1339   1.358       .  S
C1335      C1336   1.405       .  A
C1335      F1341   1.358       .  S
C1336      C1337   1.411       .  A
C1337      C1338   1.400       .  A
C1337      F1340   1.358       .  S
C1338      F1342   1.358       .  S
