geometry optimzed in LAMMPS
_audit_creation_date              2020-11-30 
_audit_creation_method            'lammps2cif' 
_symmetry_space_group_name_H-M    'P1' 
_symmetry_Int_Tables_number       1 
_symmetry_cell_setting            triclinic 
loop_ 
_symmetry_equiv_pos_as_xyz 
  x,y,z 
_cell_length_a                    36.80795219 
_cell_length_b                    36.42048528708067 
_cell_length_c                    36.852595438265666 
_cell_angle_alpha                 89.00502990691422 
_cell_angle_beta                  89.26561726747536 
_cell_angle_gamma                 90.39678849428962 
loop_ 
_atom_site_label 
_atom_site_type_symbol 
_atom_site_fract_x 
_atom_site_fract_y 
_atom_site_fract_z 
_atom_site_charge 
O1          O  0.53742075  0.05160415  0.84447903    -0.80600
O2          O  0.54250453  0.05024256  0.63601999    -0.82100
O3          O  0.61274914  0.03583408  0.74168841    -0.79100
O4          O  0.53265152  0.12477284  0.74478237    -0.77500
O5          O  0.47065569  0.12809261  0.74289598    -0.79300
O6          O  0.60919838  0.97317225  0.74740538    -0.80200
O7          O  0.56834614  0.08529104  0.67989806    -0.81600
O8          O  0.57428769  0.07602980  0.79942196    -0.81900
Eu9        Eu  0.55057601  0.05979762  0.74010440     2.39200
O10         O  0.50056471  0.06040672  0.70162725    -0.89400
O11         O  0.54512464  0.00783063  0.77819637    -0.93000
C12         C  0.56520992  0.07037530  0.83293385     1.01700
C13         C  0.56212284  0.07764883  0.64642272     1.01500
C14         C  0.62713672  0.00371719  0.74505301     1.01500
C15         C  0.50260178  0.14292471  0.74614026     0.99300
H16         H  0.57340379  0.00409904  0.69160734     0.20300
O17         O  0.55147094  0.00523112  0.70619066    -1.01700
H18         H  0.49760297  0.08392498  0.79103219     0.29100
O19         O  0.49726839  0.06247265  0.77603486    -1.04300
O20         O  0.46083686  0.96053672  0.64124719    -0.81500
O21         O  0.45138797  0.96770979  0.84660293    -0.81100
O22         O  0.56821033  0.92641550  0.68907907    -0.79500
O23         O  0.43114412  0.08509850  0.67504582    -0.82800
O24         O  0.42157380  0.08487767  0.79428462    -0.80700
O25         O  0.57034720  0.93949715  0.80485325    -0.79300
O26         O  0.45842305  0.89393020  0.75619223    -0.80900
O27         O  0.37889305  0.98108519  0.73505968    -0.82800
O28         O  0.52038743  0.89031797  0.75765026    -0.79500
O29         O  0.38317879  0.04369898  0.73057775    -0.82200
O30         O  0.54343489  0.95978530  0.64262902    -0.77900
O31         O  0.53984568  0.97360874  0.84698837    -0.78000
O32         O  0.44871155  0.05364784  0.84110001    -0.77600
O33         O  0.46233801  0.04941162  0.63470973    -0.81100
O34         O  0.42634929  0.93152549  0.68553100    -0.80500
O35         O  0.41570188  0.94198794  0.80320161    -0.78900
Eu36       Eu  0.50117232  0.00595601  0.66803788     2.39800
Eu37       Eu  0.49341211  0.01104542  0.81544621     2.39600
Eu38       Eu  0.54548015  0.95322555  0.74556152     2.38400
Eu39       Eu  0.44704565  0.06395724  0.73687221     2.39900
Eu40       Eu  0.44168244  0.95848199  0.74353239     2.39800
O41         O  0.44247065  0.01280882  0.77707698    -0.93300
O42         O  0.49506023  0.95434815  0.70745685    -0.92200
C43         C  0.43715019  0.93646166  0.65240726     1.01900
C44         C  0.42504186  0.94688158  0.83636342     1.00600
C45         C  0.56401598  0.93380117  0.65503824     1.00000
C46         C  0.44007667  0.07551071  0.64251761     1.02000
C47         C  0.42614469  0.07740019  0.82820718     1.00900
C48         C  0.56469822  0.95068731  0.83728326     0.99800
C49         C  0.48817423  0.87594037  0.76127204     0.99800
C50         C  0.36488286  0.01323087  0.72993405     1.02500
H51         H  0.49148203  0.93691518  0.79899828     0.29800
O52         O  0.49253414  0.95717323  0.78179832    -1.05400
H53         H  0.42715543  0.00935262  0.68688564     0.31900
O54         O  0.44736546  0.00941310  0.70330417    -1.08000
C55         C  0.64520947  0.19661106  0.47564360    -0.02900
O56         O  0.51967453  0.04453926  0.34153335    -0.80600
O57         O  0.52501952  0.04440547  0.13528606    -0.82100
O58         O  0.59667131  0.03293901  0.24870291    -0.79100
O59         O  0.51239113  0.11804118  0.22694234    -0.77500
O60         O  0.45007386  0.11863692  0.22838934    -0.79300
O61         O  0.59372190  0.97017590  0.24994866    -0.80200
O62         O  0.55881188  0.07319170  0.17845555    -0.81600
O63         O  0.55076099  0.07823951  0.29784040    -0.81900
Eu64       Eu  0.53344324  0.05459844  0.23823414     2.39200
O65         O  0.48068737  0.05554261  0.20245392    -0.89400
O66         O  0.53130680  0.00100156  0.27485437    -0.93000
C67         C  0.54204622  0.07032063  0.33115400     1.01700
C68         C  0.55111920  0.06559573  0.14530735     1.01500
C69         C  0.61107835  0.00090590  0.25379663     1.01500
C70         C  0.48144673  0.13427287  0.22379998     0.99300
H71         H  0.55470232  0.00205355  0.18595954     0.29100
O72         O  0.53285202  0.00271303  0.20071010    -1.01700
H73         H  0.48042710  0.07553245  0.29047782     0.29100
O74         O  0.48061329  0.05390673  0.27574610    -1.04300
O75         O  0.43804185  0.96157458  0.13424170    -0.81500
O76         O  0.43456774  0.95672987  0.34142087    -0.81100
O77         O  0.55150131  0.92863931  0.17890556    -0.79500
O78         O  0.40092791  0.07102311  0.18128665    -0.82800
O79         O  0.40953863  0.07719405  0.30026885    -0.80700
O80         O  0.54717940  0.92017188  0.29362945    -0.79300
O81         O  0.44648881  0.88655020  0.23150046    -0.80900
O82         O  0.36467993  0.97223262  0.24497851    -0.82800
O83         O  0.50860620  0.88599700  0.23123989    -0.79500
O84         O  0.36464849  0.03478667  0.24861217    -0.82200
O85         O  0.52002519  0.95988931  0.13503801    -0.77900
O86         O  0.52116233  0.95312009  0.33951243    -0.78000
O87         O  0.43566320  0.04000000  0.34334815    -0.77600
O88         O  0.43494461  0.04499913  0.13601915    -0.81100
O89         O  0.40675439  0.92919396  0.17852905    -0.80500
O90         O  0.40555048  0.92554029  0.29674164    -0.78900
Eu91       Eu  0.47969524  0.00410363  0.16481546     2.39800
Eu92       Eu  0.47937024  0.99958313  0.31257351     2.39600
Eu93       Eu  0.53066104  0.94956921  0.23760775     2.38400
Eu94       Eu  0.42817583  0.05525543  0.23974009     2.39900
Eu95       Eu  0.42693697  0.95001297  0.23815319     2.39800
O96         O  0.42813149  0.00139882  0.27550685    -0.93300
O97         O  0.47902653  0.95108740  0.20132843    -0.92200
C98         C  0.41463730  0.93699207  0.14503493     1.01900
C99         C  0.41146582  0.93251840  0.33032413     1.00600
C100        C  0.54304820  0.93553812  0.14575770     1.00000
C101        C  0.40817626  0.06447782  0.14771801     1.02000
C102        C  0.41453156  0.06642633  0.33344539     1.00900
C103        C  0.54131969  0.92693927  0.32716572     0.99800
C104        C  0.47726664  0.87014027  0.22865651     0.99800
C105        C  0.34855268  0.00314645  0.24983599     1.02500
H106        H  0.47755868  0.92541503  0.28918756     0.29800
O107        O  0.47841119  0.94787588  0.27495175    -1.05400
H108        H  0.40529876  0.00278538  0.18792426     0.31900
O109        O  0.42709124  0.00342260  0.20218712    -1.08000
C110        C  0.29022727  0.85636140  0.98562246    -0.02900
C111        C  0.67503987  0.85197570  0.99480324    -0.02900
C112        C  0.64831152  0.82468075  0.48260287    -0.02900
C113        C  0.29649278  0.15650212  0.98531237    -0.02900
C114        C  0.67605955  0.16534630  0.99260590    -0.02900
C115        C  0.33681532  0.19714267  0.49088436    -0.02900
C116        C  0.33226725  0.82212457  0.50512515    -0.02900
O117        O  0.87835135  0.77610881  0.53400225    -0.80600
O118        O  0.01964655  0.75626633  0.38382279    -0.82100
O119        O  0.92083410  0.82518040  0.42714697    -0.79100
O120        O  0.91619358  0.70286431  0.43049666    -0.77500
O121        O  0.95163269  0.66057802  0.45955881    -0.79300
O122        O  0.95015099  0.87061061  0.45804796    -0.80200
O123        O  0.95769758  0.75880579  0.38662498    -0.81600
O124        O  0.87619350  0.77313462  0.47220187    -0.81900
Eu125      Eu  0.93878373  0.76413081  0.44994657     2.39200
O126        O  0.99023286  0.72629223  0.44969550    -0.89400
O127        O  0.94182837  0.80168316  0.50106160    -0.93000
C128        C  0.86151695  0.77882321  0.50362061     1.01700
C129        C  0.98798842  0.75495560  0.36926812     1.01500
C130        C  0.92753097  0.85924596  0.43383208     1.01500
C131        C  0.92629417  0.66943404  0.43736736     0.99300
H132        H  0.99132834  0.81657884  0.42522194     0.29100
O133        O  0.99146005  0.80163561  0.44712932    -1.01700
H134        H  0.91785441  0.71160431  0.50174401     0.29100
O135        O  0.93991084  0.72612490  0.50187389    -1.04300
O136        O  0.10574328  0.76370989  0.46296106    -0.81500
O137        O  0.96161027  0.75701050  0.61480695    -0.81100
O138        O  0.03826305  0.86727267  0.45463444    -0.79500
O139        O  0.03348802  0.65837321  0.45769155    -0.82800
O140        O  0.94504747  0.65828895  0.53946092    -0.80700
O141        O  0.95802478  0.86823465  0.54742244    -0.79300
O142        O  0.06778195  0.82115787  0.57359956    -0.80900
O143        O  0.06665996  0.70406026  0.57391714    -0.82800
O144        O  0.04144451  0.86677785  0.53953674    -0.79500
O145        O  0.03484594  0.65871460  0.54579752    -0.82200
O146        O  0.06354845  0.82192578  0.42028489    -0.77900
O147        O  0.92533171  0.82372892  0.57868578    -0.78000
O148        O  0.91314380  0.70223025  0.56998275    -0.77600
O149        O  0.06113571  0.70320473  0.42260661    -0.81100
O150        O  0.10722793  0.76692153  0.52504273    -0.80500
O151        O  0.02373514  0.75674306  0.61458046    -0.78900
Eu152      Eu  0.04228987  0.76289188  0.44574932     2.39800
Eu153      Eu  0.94059291  0.76342148  0.55303752     2.39600
Eu154      Eu  0.99451398  0.83925275  0.49909846     2.38400
Eu155      Eu  0.99267363  0.68868298  0.50198688     2.39900
Eu156      Eu  0.04515142  0.76283571  0.55062444     2.39800
O157        O  0.99253878  0.72591698  0.55316795    -0.93300
O158        O  0.04477309  0.79993053  0.49755896    -0.92200
C159        C  0.12237308  0.76657987  0.49324676     1.01900
C160        C  0.99236623  0.75490629  0.63084749     1.00600
C161        C  0.05922378  0.85579754  0.42877699     1.00000
C162        C  0.05479816  0.66935180  0.43141266     1.02000
C163        C  0.91896394  0.66849170  0.56074842     1.00900
C164        C  0.93573495  0.85733358  0.57290203     0.99800
C165        C  0.06334025  0.85513247  0.56452938     0.99800
C166        C  0.05871586  0.67010911  0.56871486     1.02500
H167        H  0.99508773  0.81465338  0.57305908     0.29800
O168        O  0.99377380  0.80036787  0.55127899    -1.05400
H169        H  0.06652502  0.71042780  0.49833035     0.31900
O170        O  0.04514840  0.72563304  0.49886352    -1.08000
O171        O  0.87495042  0.24791720  0.53355147    -0.80600
O172        O  0.02646449  0.26832399  0.38966655    -0.82100
O173        O  0.91528481  0.31901705  0.43081743    -0.79100
O174        O  0.92275889  0.19813394  0.42380280    -0.77500
O175        O  0.95491406  0.15486324  0.45533776    -0.79300
O176        O  0.94822746  0.36352453  0.45931470    -0.80200
O177        O  0.96437785  0.26741703  0.38605659    -0.81600
O178        O  0.87539090  0.25023874  0.47132633    -0.81900
Eu179      Eu  0.93946605  0.25872103  0.44918841     2.39200
O180        O  0.99354490  0.22413608  0.45010964    -0.89400
O181        O  0.93818171  0.29459530  0.50220005    -0.93000
C182        C  0.85903571  0.24579774  0.50253906     1.01700
C183        C  0.99668288  0.27083284  0.37169886     1.01500
C184        C  0.92365385  0.35280012  0.43700749     1.01500
C185        C  0.93237761  0.16453878  0.43029926     0.99300
H186        H  0.99212653  0.31348247  0.43076217     0.29100
O187        O  0.99161548  0.29703789  0.45158178    -1.01700
H188        H  0.91893225  0.20404971  0.50133629     0.29100
O189        O  0.93927647  0.22088323  0.50179271    -1.04300
O190        O  0.10898081  0.25740824  0.47443264    -0.81500
O191        O  0.95866636  0.25972686  0.61911362    -0.81100
O192        O  0.03262877  0.36639101  0.46008013    -0.79500
O193        O  0.03699044  0.15792108  0.46204064    -0.82800
O194        O  0.94855586  0.15208141  0.54196597    -0.80700
O195        O  0.94414502  0.36253246  0.54274235    -0.79300
O196        O  0.05963522  0.31928359  0.58079364    -0.80900
O197        O  0.06241424  0.19800438  0.58016124    -0.82800
O198        O  0.02733214  0.36234839  0.54910669    -0.79500
O199        O  0.03154669  0.15612038  0.54674187    -0.82200
O200        O  0.06869695  0.32353598  0.43301971    -0.77900
O201        O  0.91190800  0.31634068  0.57181763    -0.78000
O202        O  0.91991537  0.19461878  0.57721728    -0.77600
O203        O  0.06862079  0.20389668  0.43211595    -0.81100
O204        O  0.10683183  0.25704448  0.53643826    -0.80500
O205        O  0.02081007  0.25724496  0.61831266    -0.78900
Eu206      Eu  0.04561000  0.26266791  0.45289409     2.39800
Eu207      Eu  0.93766080  0.25648962  0.55492873     2.39600
Eu208      Eu  0.98974965  0.33374548  0.50285565     2.38400
Eu209      Eu  0.99183367  0.18541373  0.50191237     2.39900
Eu210      Eu  0.04262582  0.25892572  0.55604200     2.39800
O211        O  0.99059167  0.22071234  0.55483025    -0.93300
O212        O  0.04406599  0.29922438  0.50487625    -0.92200
C213        C  0.12424182  0.25536084  0.50584958     1.01900
C214        C  0.98999495  0.25926816  0.63492158     1.00600
C215        C  0.05873049  0.35696200  0.43826734     1.00000
C216        C  0.06163980  0.16988191  0.43959456     1.02000
C217        C  0.92643836  0.16134819  0.56760402     1.00900
C218        C  0.91866050  0.35054371  0.56436820     0.99800
C219        C  0.04949641  0.35267683  0.57438290     0.99800
C220        C  0.05400248  0.16458786  0.57198634     1.02500
H221        H  0.98785978  0.30963821  0.57593852     0.29800
O222        O  0.98927995  0.29472516  0.55458719    -1.05400
H223        H  0.06499891  0.20788632  0.50443898     0.31900
O224        O  0.04372609  0.22319959  0.50389135    -1.08000
C225        C  0.79815330  0.50754206  0.66013647    -0.02900
C226        C  0.17246770  0.50351173  0.66029015    -0.02900
C227        C  0.82501232  0.01243310  0.31128837    -0.02900
C228        C  0.84170144  0.00596276  0.70243652    -0.02900
C229        C  0.79745171  0.51176279  0.35336830    -0.02900
C230        C  0.18804816  0.51523674  0.34864367    -0.02900
C231        C  0.13571978  0.01926706  0.30327839    -0.02900
C232        C  0.14679242  0.00571089  0.69826546    -0.02900
O233        O  0.74250184  0.62104849  0.96710477    -0.80600
O234        O  0.75491309  0.48533283  0.12522319    -0.82100
O235        O  0.69260255  0.58984184  0.07539115    -0.79100
O236        O  0.81270210  0.58417190  0.07044198    -0.77500
O237        O  0.85283722  0.54601060  0.04197992    -0.79300
O238        O  0.64697496  0.56233463  0.04375116    -0.80200
O239        O  0.75994913  0.54774237  0.11842845    -0.81600
O240        O  0.74402059  0.62708726  0.02873413    -0.81900
Eu241      Eu  0.75079226  0.56430734  0.05436206     2.39200
O242        O  0.78295153  0.50890324  0.05752063    -0.89400
O243        O  0.71418777  0.56016605  0.00321977    -0.93000
C244        C  0.73969369  0.64014587  0.99622320     1.01700
C245        C  0.76148584  0.51775825  0.13753570     1.01500
C246        C  0.65903028  0.58594969  0.06631610     1.01500
C247        C  0.84512325  0.57305582  0.06280981     0.99300
H248        H  0.69538071  0.51715829  0.08347812     0.29100
O249        O  0.70974472  0.51421898  0.06163689    -1.01700
H250        H  0.80254657  0.57977502  0.99882435     0.29100
O251        O  0.78630358  0.55882376  0.00093126    -1.04300
O252        O  0.73576037  0.39351675  0.04946329    -0.81500
O253        O  0.75146594  0.52951799  0.88831279    -0.81100
O254        O  0.64033928  0.47622251  0.05869768    -0.79500
O255        O  0.84653711  0.45899136  0.04780416    -0.82800
O256        O  0.85032948  0.54310291  0.95966222    -0.80700
O257        O  0.64407679  0.55352818  0.96589268    -0.79300
O258        O  0.67932763  0.43451873  0.93919078    -0.80900
O259        O  0.79742289  0.42199680  0.94255007    -0.82800
O260        O  0.63890268  0.47060226  0.96963163    -0.79500
O261        O  0.84436864  0.45594149  0.96519349    -0.82200
O262        O  0.68177330  0.44376533  0.09189912    -0.77900
O263        O  0.68887393  0.58046498  0.93039745    -0.78000
O264        O  0.80976323  0.57727957  0.92710028    -0.77600
O265        O  0.80150525  0.43368461  0.08409292    -0.81100
O266        O  0.73394415  0.39113516  0.98755662    -0.80500
O267        O  0.74924289  0.46698454  0.89551409    -0.78900
Eu268      Eu  0.74256701  0.45880425  0.06509768     2.39800
Eu269      Eu  0.74866807  0.55664116  0.94949886     2.39600
Eu270      Eu  0.67250973  0.51161680  0.00968971     2.38400
Eu271      Eu  0.81869773  0.50298587  0.00472144     2.39900
Eu272      Eu  0.74043500  0.45191689  0.96021256     2.39800
O273        O  0.78129820  0.50153229  0.95376495    -0.93300
O274        O  0.70491189  0.45666568  0.01366467    -0.92200
C275        C  0.73276478  0.37604402  0.01939567     1.01900
C276        C  0.75300102  0.49650859  0.87591059     1.00600
C277        C  0.64890388  0.45396413  0.08498424     1.00000
C278        C  0.83505410  0.43744112  0.07381431     1.02000
C279        C  0.84254230  0.56815549  0.93572437     1.00900
C280        C  0.65531058  0.57567749  0.94039690     0.99800
C281        C  0.64684619  0.44589507  0.94614589     0.99800
C282        C  0.83145892  0.42909649  0.94685277     1.02500
H283        H  0.69236383  0.50629609  0.93461302     0.29800
O284        O  0.70762092  0.50674236  0.95570610    -1.05400
H285        H  0.79103887  0.43064418  0.01279565     0.31900
O286        O  0.77768758  0.45333785  0.01145131    -1.08000
O287        O  0.25420118  0.62364725  0.97856033    -0.80600
O288        O  0.23827215  0.46661555  0.11808062    -0.82100
O289        O  0.19027136  0.57761485  0.08072165    -0.79100
O290        O  0.31080361  0.56997739  0.08193140    -0.77500
O291        O  0.35109140  0.54086676  0.04486221    -0.79300
O292        O  0.14503866  0.54695878  0.05113583    -0.80200
O293        O  0.24121544  0.52921348  0.12122226    -0.81600
O294        O  0.25349480  0.62013872  0.04073795    -0.81900
Eu295      Eu  0.24918778  0.55509245  0.05884166     2.39200
O296        O  0.28377930  0.50137267  0.05556961    -0.89400
O297        O  0.21179782  0.55894354  0.00711934    -0.93000
C298        C  0.25577970  0.63823238  0.01034195     1.01700
C299        C  0.23669562  0.49686344  0.13583333     1.01500
C300        C  0.15667337  0.56975832  0.07472330     1.01500
C301        C  0.34352548  0.56156529  0.07185531     0.99300
H302        H  0.19462174  0.50286917  0.07721801     0.29100
O303        O  0.21022069  0.50383164  0.05599126    -1.01700
H304        H  0.30080506  0.57833689  0.00519195     0.29100
O305        O  0.28422833  0.55770270  0.00471581    -1.04300
O306        O  0.24823528  0.38850285  0.02907174    -0.81500
O307        O  0.23963433  0.54452150  0.88806468    -0.81100
O308        O  0.14132914  0.46513329  0.04843082    -0.79500
O309        O  0.34701949  0.46049320  0.04390085    -0.82800
O310        O  0.34911324  0.54905947  0.96006479    -0.80700
O311        O  0.14407445  0.55664746  0.96818201    -0.79300
O312        O  0.18173032  0.43358947  0.93085757    -0.80900
O313        O  0.30164464  0.44029200  0.92289184    -0.82800
O314        O  0.14071161  0.46506662  0.96540119    -0.79500
O315        O  0.34709201  0.46418379  0.95763366    -0.82200
O316        O  0.18408193  0.42738423  0.07360415    -0.77900
O317        O  0.18905673  0.59010678  0.93909128    -0.78000
O318        O  0.30594015  0.58011310  0.92776423    -0.77600
O319        O  0.30399200  0.42986024  0.07813648    -0.81100
O320        O  0.24816480  0.38991164  0.96693616    -0.80500
O321        O  0.23838318  0.48166394  0.88548225    -0.78900
Eu322      Eu  0.24466430  0.45007073  0.05385513     2.39800
Eu323      Eu  0.24678697  0.56141157  0.95309760     2.39600
Eu324      Eu  0.17245263  0.50775266  0.00539643     2.38400
Eu325      Eu  0.31837366  0.50405147  0.00147875     2.39900
Eu326      Eu  0.24229197  0.45582167  0.94851684     2.39800
O327        O  0.28117319  0.50750735  0.95003386    -0.93300
O328        O  0.20702932  0.45374577  0.00247716    -0.92200
C329        C  0.25074987  0.37288943  0.99799283     1.01900
C330        C  0.23727244  0.51408983  0.87043914     1.00600
C331        C  0.15100761  0.43816667  0.06932382     1.00000
C332        C  0.33739389  0.43749082  0.06940663     1.02000
C333        C  0.33910464  0.57272611  0.93565588     1.00900
C334        C  0.15563179  0.58338339  0.94747785     0.99800
C335        C  0.14903477  0.44084562  0.94151729     0.99800
C336        C  0.33522569  0.44554302  0.93088652     1.02500
H337        H  0.19128468  0.51173160  0.93135279     0.29800
O338        O  0.20743265  0.50990440  0.95172019    -1.05400
H339        H  0.29558872  0.43125639  0.99890030     0.31900
O340        O  0.28007210  0.45248073  0.00005244    -1.08000
C341        C  0.00092600  0.69608971  0.84246706    -0.02900
C342        C  0.99270671  0.32310174  0.84338224    -0.02900
C343        C  0.49920738  0.65914482  0.81277849    -0.02900
C344        C  0.49952828  0.65330604  0.19568607    -0.02900
C345        C  0.99337094  0.30791454  0.15464990    -0.02900
C346        C  0.99897632  0.69143778  0.16178981    -0.02900
C347        C  0.49686036  0.35301652  0.81793171    -0.02900
C348        C  0.48861649  0.35605032  0.20680498    -0.02900
O349        O  0.56210748  0.42390169  0.46964296    -0.80600
O350        O  0.44959078  0.49843831  0.62484490    -0.82100
O351        O  0.57567251  0.46475052  0.57658370    -0.79100
O352        O  0.47218911  0.39574764  0.54885136    -0.77500
O353        O  0.42520595  0.41063190  0.51141265    -0.79300
O354        O  0.57923513  0.52647512  0.58266110    -0.80200
O355        O  0.49043839  0.45189631  0.61615412    -0.81600
O356        O  0.55208904  0.40773525  0.52925920    -0.81900
Eu357      Eu  0.51120420  0.45298069  0.55380381     2.39200
O358        O  0.45052178  0.47471966  0.54903453    -0.89400
O359        O  0.54904407  0.48981136  0.51642302    -0.93000
C360        C  0.56647458  0.40245038  0.49785368     1.01700
C361        C  0.46787173  0.46998916  0.63568911     1.01500
C362        C  0.59346259  0.49474671  0.58394020     1.01500
C363        C  0.44280708  0.38770983  0.53119023     0.99300
H364        H  0.51495532  0.51688837  0.59701625     0.29100
O365        O  0.50753802  0.51475716  0.57212621    -1.01700
H366        H  0.49071253  0.42406107  0.48558886     0.29100
O367        O  0.49004347  0.44911249  0.49366342    -1.04300
O368        O  0.41639360  0.59636191  0.55491353    -0.81500
O369        O  0.52567084  0.51545205  0.39660365    -0.81100
O370        O  0.53346933  0.59123547  0.58723200    -0.79500
O371        O  0.37138641  0.48094822  0.52285549    -0.82800
O372        O  0.43801778  0.44245293  0.42858125    -0.80700
O373        O  0.60337157  0.54547335  0.49928080    -0.79300
O374        O  0.50495024  0.62543969  0.47108022    -0.80900
O375        O  0.40976753  0.56288804  0.43718271    -0.82800
O376        O  0.55099742  0.61389164  0.51048139    -0.79500
O377        O  0.38930935  0.50398813  0.44668043    -0.82200
O378        O  0.47450205  0.58143814  0.60564743    -0.77900
O379        O  0.59202726  0.50667667  0.45244686    -0.78000
O380        O  0.49859551  0.44557137  0.41408411    -0.77600
O381        O  0.38457314  0.51939953  0.56941368    -0.81100
O382        O  0.42996326  0.61298559  0.49621647    -0.80500
O383        O  0.48861157  0.56414599  0.40725761    -0.78900
Eu384      Eu  0.44772856  0.53631292  0.56735194     2.39800
Eu385      Eu  0.52998683  0.48369923  0.45656681     2.39600
Eu386      Eu  0.54516262  0.55167646  0.53397666     2.38400
Eu387      Eu  0.43012463  0.47249406  0.48853204     2.39900
Eu388      Eu  0.46824899  0.56797523  0.46930342     2.39800
O389        O  0.47056613  0.50667927  0.45200135    -0.93300
O390        O  0.48585921  0.57251229  0.52966047    -0.92200
C391        C  0.41483885  0.61870580  0.52708563     1.01900
C392        C  0.50787668  0.54418982  0.38615569     1.00600
C393        C  0.50559772  0.59719768  0.60805498     1.00000
C394        C  0.36230903  0.50072630  0.55047368     1.02000
C395        C  0.46564820  0.43623961  0.40743871     1.00900
C396        C  0.61293884  0.52813759  0.47030088     0.99800
C397        C  0.53363668  0.63507435  0.48859653     0.99800
C398        C  0.38645602  0.53663090  0.43299368     1.02500
H399        H  0.54379832  0.56105871  0.45731911     0.29800
O400        O  0.52802876  0.54634646  0.47305098    -1.05400
H401        H  0.40473231  0.54327896  0.50517768     0.31900
O402        O  0.42891839  0.53343226  0.50705818    -1.08000
O403        O  0.06886126  0.93557035  0.05298954    -0.80600
O404        O  0.99496601  0.03940799  0.88771118    -0.82100
O405        O  0.03690998  0.92232598  0.93220964    -0.79100
O406        O  0.09508073  0.02364465  0.96350905    -0.77500
O407        O  0.08150212  0.07245142  0.99934459    -0.79300
O408        O  0.98026752  0.90084177  0.94696998    -0.80200
O409        O  0.04478925  0.00485988  0.90137341    -0.81600
O410        O  0.08516802  0.94417830  0.99330152    -0.81900
Eu411      Eu  0.04143039  0.98254816  0.96335643     2.39200
O412        O  0.01815565  0.04241956  0.96414320    -0.89400
O413        O  0.00792985  0.94439218  0.00340469    -0.93000
C414        C  0.09029557  0.93082735  0.02526586     1.01700
C415        C  0.02583264  0.02456575  0.87953480     1.01500
C416        C  0.01138039  0.89768860  0.93115120     1.01500
C417        C  0.10304227  0.05431460  0.97878959     0.99300
H418        H  0.98062562  0.97211618  0.91956427     0.29100
O419        O  0.98127762  0.98187369  0.94376440    -1.01700
H420        H  0.06923583  0.00631992  0.02997747     0.29100
O421        O  0.04426205  0.00590584  0.02229083    -1.04300
O422        O  0.89861666  0.07390587  0.95184039    -0.81500
O423        O  0.97501184  0.97596312  0.11998094    -0.81100
O424        O  0.91331994  0.94609837  0.92716010    -0.79500
O425        O  0.01712382  0.11972862  0.98077160    -0.82800
O426        O  0.05780920  0.05981566  0.07908735    -0.80700
O427        O  0.95200289  0.88884899  0.02414515    -0.79300
O428        O  0.87096750  0.98677229  0.04300682    -0.80900
O429        O  0.93140361  0.08539976  0.07519213    -0.82800
O430        O  0.88639503  0.93905409  0.00664389    -0.79500
O431        O  0.98951445  0.10601100  0.06441635    -0.82200
O432        O  0.91851223  0.00574313  0.90709412    -0.77900
O433        O  0.98992227  0.90519206  0.06977207    -0.78000
O434        O  0.05162515  0.00039257  0.09985750    -0.77600
O435        O  0.97867022  0.10510678  0.93486813    -0.81100
O436        O  0.88152902  0.06336509  0.01085526    -0.80500
O437        O  0.92356785  0.00833030  0.10649320    -0.78900
Eu438      Eu  0.95782496  0.04202861  0.94458771     2.39800
Eu439      Eu  0.00994990  0.96812808  0.06210977     2.39600
Eu440      Eu  0.94769810  0.94394832  0.98422858     2.38400
Eu441      Eu  0.02064651  0.06565483  0.02304144     2.39900
Eu442      Eu  0.92572749  0.02666233  0.04301465     2.39800
O443        O  0.98618078  0.02773198  0.06239212    -0.93300
O444        O  0.92363948  0.00357010  0.98406804    -0.92200
C445        C  0.87622709  0.07710213  0.97899189     1.01900
C446        C  0.94455968  0.99141566  0.12868283     1.00600
C447        C  0.90683925  0.97254785  0.90440281     1.00000
C448        C  0.00030939  0.12736804  0.95087943     1.02000
C449        C  0.06485817  0.03296811  0.10140098     1.00900
C450        C  0.96959802  0.88193600  0.05360021     0.99800
C451        C  0.86376830  0.95661645  0.02646212     0.99800
C452        C  0.95782749  0.10845895  0.07922854     1.02500
H453        H  0.93481988  0.95130932  0.05988759     0.29800
O454        O  0.94914862  0.96671271  0.04350953    -1.05400
H455        H  0.95042716  0.09015937  0.00377995     0.31900
O456        O  0.95996818  0.06554551  0.00367967    -1.08000
C457        C  0.46054284  0.41966851  0.37145554    -0.05700
C458        C  0.42972498  0.42723972  0.35059028    -0.05600
C459        C  0.42966337  0.41949951  0.31336569    -0.23800
C460        C  0.46038698  0.40402476  0.29653740     0.18500
C461        C  0.49079860  0.39529523  0.31779646     0.15700
C462        C  0.49047800  0.40261111  0.35489758    -0.18800
C463        C  0.52158605  0.38015533  0.30157527    -0.20600
C464        C  0.52140000  0.37111827  0.26506362    -0.13200
C465        C  0.49036192  0.37688811  0.24342320     0.03500
C466        C  0.46102373  0.39644766  0.25912056    -0.25300
H467        H  0.40659117  0.44098839  0.36252366     0.08600
H468        H  0.40587864  0.42622094  0.29763146     0.12200
H469        H  0.51446188  0.39656384  0.37067348     0.12100
H470        H  0.54540853  0.37392289  0.31747092     0.11900
H471        H  0.54472959  0.35673785  0.25436442     0.12400
H472        H  0.43799876  0.40475331  0.24330993     0.14400
C473        C  0.46377421  0.45538913  0.67290681    -0.05700
C474        C  0.43263466  0.43499631  0.68278816    -0.05600
C475        C  0.43374818  0.40935969  0.71158283    -0.23800
C476        C  0.46604072  0.40389331  0.73084347     0.18500
C477        C  0.49668141  0.42606332  0.72239081     0.15700
C478        C  0.49534239  0.45163272  0.69359695    -0.18800
C479        C  0.52876793  0.42107574  0.74167995    -0.20600
C480        C  0.52993101  0.39596281  0.77062025    -0.13200
C481        C  0.49875336  0.37541406  0.78153327     0.03500
C482        C  0.46814719  0.37703930  0.75865673    -0.25300
H483        H  0.40842941  0.43676025  0.66645756     0.08600
H484        H  0.40977278  0.39295788  0.71797232     0.12200
H485        H  0.51971051  0.46675556  0.68548814     0.12100
H486        H  0.55292312  0.43700865  0.73472417     0.11900
H487        H  0.55540595  0.39343562  0.78466470     0.12400
H488        H  0.44450778  0.36013892  0.76513396     0.14400
C489        C  0.99303226  0.73111237  0.14717814    -0.05700
C490        C  0.01841442  0.75845957  0.15686284    -0.05600
C491        C  0.01765921  0.79332765  0.14121580    -0.23800
C492        C  0.99160396  0.80193383  0.11532229     0.18500
C493        C  0.96448614  0.77615072  0.10670083     0.15700
C494        C  0.96444650  0.74141379  0.12376092    -0.18800
C495        C  0.93864106  0.78526362  0.08029523    -0.20600
C496        C  0.94020237  0.81947635  0.06227327    -0.13200
C497        C  0.96728733  0.84511311  0.07091243     0.03500
C498        C  0.99276048  0.83594742  0.09761094    -0.25300
H499        H  0.04027174  0.75209332  0.17527438     0.08600
H500        H  0.03835008  0.81313639  0.14840803     0.12200
H501        H  0.94272403  0.72262170  0.11750558     0.12100
H502        H  0.91762447  0.76577842  0.07322180     0.11900
H503        H  0.92015426  0.82596971  0.04193787     0.12400
H504        H  0.01410978  0.85518247  0.10448408     0.14400
C505        C  0.98949057  0.26677365  0.14515970    -0.05700
C506        C  0.01509680  0.24136964  0.15868438    -0.05600
C507        C  0.01223550  0.20405957  0.15144631    -0.23800
C508        C  0.98249075  0.19075440  0.13235628     0.18500
C509        C  0.95441721  0.21482521  0.12218087     0.15700
C510        C  0.95800849  0.25244591  0.12862330    -0.18800
C511        C  0.92370326  0.20098644  0.10461145    -0.20600
C512        C  0.92263923  0.16435509  0.09390974    -0.13200
C513        C  0.95224580  0.14140492  0.10079348     0.03500
C514        C  0.98110518  0.15411626  0.12184028    -0.25300
H515        H  0.03811957  0.25076628  0.17409844     0.08600
H516        H  0.03347929  0.18570311  0.16045464     0.12200
H517        H  0.93573626  0.27010239  0.12115894     0.12100
H518        H  0.90153795  0.21895796  0.09727906     0.11900
H519        H  0.90026262  0.15493239  0.07759796     0.12400
H520        H  0.00383605  0.13618188  0.12753114     0.14400
C521        C  0.49539946  0.63486875  0.23359896    -0.05700
C522        C  0.47956779  0.65421036  0.26260515    -0.05600
C523        C  0.47766257  0.63898292  0.29721466    -0.23800
C524        C  0.49162302  0.60408855  0.30394772     0.18500
C525        C  0.50471137  0.58266581  0.27522419     0.15700
C526        C  0.50456414  0.59751227  0.23974069    -0.18800
C527        C  0.51881788  0.54756137  0.28296731    -0.20600
C528        C  0.52074153  0.53454688  0.31907147    -0.13200
C529        C  0.50810355  0.55636958  0.34761827     0.03500
C530        C  0.49316048  0.59088399  0.33938757    -0.25300
H531        H  0.46881878  0.68156037  0.25890828     0.08600
H532        H  0.46632128  0.65510608  0.31900962     0.12200
H533        H  0.51399336  0.58101143  0.21736588     0.12100
H534        H  0.52894785  0.53056887  0.26127772     0.11900
H535        H  0.53177981  0.50756950  0.32459854     0.12400
H536        H  0.48308492  0.60831916  0.36078880     0.14400
C537        C  0.50850251  0.64638208  0.77369163    -0.05700
C538        C  0.53963663  0.62509785  0.76557563    -0.05600
C539        C  0.54775964  0.61459794  0.73029393    -0.23800
C540        C  0.52602428  0.62609554  0.70165237     0.18500
C541        C  0.49641826  0.64961862  0.70843588     0.15700
C542        C  0.48801099  0.65970186  0.74414219    -0.18800
C543        C  0.47482753  0.66139197  0.67951164    -0.20600
C544        C  0.48063007  0.64729817  0.64494255    -0.13200
C545        C  0.50859657  0.62198590  0.63869151     0.03500
C546        C  0.53237146  0.61292288  0.66665490    -0.25300
H547        H  0.55867715  0.61664251  0.78604048     0.08600
H548        H  0.57109973  0.59728276  0.72545938     0.12200
H549        H  0.46500126  0.67740334  0.74918758     0.12100
H550        H  0.45218231  0.67968324  0.68403346     0.11900
H551        H  0.46167551  0.65407054  0.62362065     0.12400
H552        H  0.55340786  0.59274300  0.66206849     0.14400
C553        C  0.00579249  0.16404611  0.93315159    -0.05700
C554        C  0.03621512  0.18601732  0.94072939    -0.05600
C555        C  0.04112138  0.22033010  0.92344206    -0.23800
C556        C  0.01531358  0.23364956  0.89879117     0.18500
C557        C  0.98486971  0.21166430  0.89080607     0.15700
C558        C  0.98053469  0.17700037  0.90758586    -0.18800
C559        C  0.95885022  0.22488641  0.86662338    -0.20600
C560        C  0.96204653  0.26021781  0.85168878    -0.13200
C561        C  0.99158405  0.28348205  0.86005917     0.03500
C562        C  0.01906222  0.26882073  0.88266369    -0.25300
H563        H  0.05636697  0.17655860  0.95982536     0.08600
H564        H  0.06478962  0.23672182  0.92984539     0.12200
H565        H  0.95692020  0.16045311  0.90127993     0.12100
H566        H  0.93546141  0.20822257  0.85990656     0.11900
H567        H  0.94076181  0.26990482  0.83398888     0.12400
H568        H  0.04323386  0.28447629  0.88854044     0.14400
C569        C  0.99761138  0.73391583  0.86122542    -0.05700
C570        C  0.96459416  0.74526909  0.87736184    -0.05600
C571        C  0.96139442  0.77952415  0.89307278    -0.23800
C572        C  0.99087491  0.80384816  0.89312807     0.18500
C573        C  0.02399864  0.79414196  0.87650960     0.15700
C574        C  0.02693386  0.75959733  0.85991089    -0.18800
C575        C  0.05339001  0.81915933  0.87717694    -0.20600
C576        C  0.04983243  0.85316304  0.89454209    -0.13200
C577        C  0.01669658  0.86279149  0.91116902     0.03500
C578        C  0.98737516  0.83777605  0.90980959    -0.25300
H579        H  0.94044043  0.72827469  0.87748943     0.08600
H580        H  0.93560342  0.78700236  0.90529669     0.12200
H581        H  0.05221728  0.75222489  0.84661881     0.12100
H582        H  0.07918611  0.81227200  0.86465589     0.11900
H583        H  0.07295221  0.87167543  0.89519014     0.12400
H584        H  0.96142060  0.84435317  0.92222063     0.14400
C585        C  0.11865485  0.41884874  0.92705178    -0.05700
C586        C  0.08939508  0.40970701  0.95039199    -0.05600
C587        C  0.06072923  0.38807540  0.93855162    -0.23800
C588        C  0.06018048  0.37586699  0.90276504     0.18500
C589        C  0.08865876  0.38562082  0.87844905     0.15700
C590        C  0.11837035  0.40645269  0.89097045    -0.18800
C591        C  0.08636500  0.37484565  0.84209534    -0.20600
C592        C  0.05599004  0.35505616  0.82998320    -0.13200
C593        C  0.02793945  0.34387781  0.85441155     0.03500
C594        C  0.03111398  0.35444018  0.89103092    -0.25300
H595        H  0.08905210  0.41869979  0.97826891     0.08600
H596        H  0.03878522  0.38112470  0.95738167     0.12200
H597        H  0.14065215  0.41368279  0.87264115     0.12100
H598        H  0.10765335  0.38250205  0.82278603     0.11900
H599        H  0.05482374  0.34893600  0.80148315     0.12400
H600        H  0.01008500  0.34647574  0.91053270     0.14400
C601        C  0.12209489  0.41857267  0.09025843    -0.05700
C602        C  0.09551418  0.43842734  0.10911880    -0.05600
C603        C  0.06807859  0.42011616  0.12910867    -0.23800
C604        C  0.06578710  0.38161503  0.12924113     0.18500
C605        C  0.09186017  0.36154593  0.10953863     0.15700
C606        C  0.12055351  0.38002707  0.09118376    -0.18800
C607        C  0.08765916  0.32353729  0.10680858    -0.20600
C608        C  0.05692311  0.30580438  0.12156600    -0.13200
C609        C  0.03072804  0.32497705  0.14235531     0.03500
C610        C  0.03674741  0.36306183  0.14703003    -0.25300
H611        H  0.09627457  0.46817477  0.10872864     0.08600
H612        H  0.04801877  0.43610479  0.14354294     0.12200
H613        H  0.14066546  0.36458112  0.07618331     0.12100
H614        H  0.10696261  0.30777975  0.09112229     0.11900
H615        H  0.05352092  0.27740427  0.11464953     0.12400
H616        H  0.01693281  0.37878003  0.16210377     0.14400
C617        C  0.12917420  0.58803823  0.09648659    -0.05700
C618        C  0.10888382  0.56802505  0.12258083    -0.05600
C619        C  0.08100252  0.58497612  0.14196591    -0.23800
C620        C  0.07264621  0.62186241  0.13471052     0.18500
C621        C  0.09298997  0.64182203  0.10812394     0.15700
C622        C  0.12152067  0.62495039  0.08953685    -0.18800
C623        C  0.08368092  0.67789604  0.09951956    -0.20600
C624        C  0.05426931  0.69417164  0.11673569    -0.13200
C625        C  0.03393784  0.67532564  0.14436003     0.03500
C626        C  0.04365875  0.63874518  0.15276943    -0.25300
H627        H  0.11458183  0.53927899  0.12778251     0.08600
H628        H  0.06555630  0.56910348  0.16202816     0.12200
H629        H  0.13693400  0.64002982  0.06879567     0.12100
H630        H  0.09844326  0.69323169  0.07853096     0.11900
H631        H  0.04724349  0.72116581  0.10678133     0.12400
H632        H  0.02784798  0.62319138  0.17282664     0.14400
C633        C  0.03314309  0.67301723  0.85689296    -0.05700
C634        C  0.04018045  0.63874687  0.84085837    -0.05600
C635        C  0.06693649  0.61543188  0.85412952    -0.23800
C636        C  0.08612178  0.62465101  0.88516509     0.18500
C637        C  0.07906312  0.65830354  0.90236535     0.15700
C638        C  0.05296327  0.68226666  0.88812033    -0.18800
C639        C  0.09748769  0.66692849  0.93425618    -0.20600
C640        C  0.12226452  0.64218610  0.94913602    -0.13200
C641        C  0.12890439  0.60863832  0.93231517     0.03500
C642        C  0.11131277  0.60014815  0.90006869    -0.25300
H643        H  0.02465163  0.63006569  0.81771438     0.08600
H644        H  0.07177682  0.58961569  0.84076941     0.12200
H645        H  0.04696680  0.70689587  0.90290258     0.12100
H646        H  0.09247133  0.69257819  0.94785870     0.11900
H647        H  0.13621812  0.64912671  0.97383229     0.12400
H648        H  0.11697398  0.57435265  0.88692095     0.14400
C649        C  0.36211518  0.43104724  0.90610860    -0.05700
C650        C  0.36461941  0.44628668  0.87109352    -0.05600
C651        C  0.39138124  0.43453646  0.84721846    -0.23800
C652        C  0.41505684  0.40652036  0.85783006     0.18500
C653        C  0.41170418  0.39001542  0.89265844     0.15700
C654        C  0.38569859  0.40313997  0.91717180    -0.18800
C655        C  0.43451771  0.36097169  0.90223044    -0.20600
C656        C  0.46015869  0.34824467  0.87728162    -0.13200
C657        C  0.46467945  0.36513122  0.84259213     0.03500
C658        C  0.44231965  0.39534895  0.83408991    -0.25300
H659        H  0.34636800  0.46793782  0.86259919     0.08600
H660        H  0.39341408  0.44716209  0.82041287     0.12200
H661        H  0.38338417  0.39148837  0.94439797     0.12100
H662        H  0.43241655  0.34797561  0.92885609     0.11900
H663        H  0.47748641  0.32570579  0.88537094     0.12400
H664        H  0.44648277  0.41196105  0.80995756     0.14400
C665        C  0.46053173  0.64724475  0.82609151    -0.05700
C666        C  0.43767264  0.62343829  0.80654712    -0.05600
C667        C  0.40737195  0.60646065  0.82325033    -0.23800
C668        C  0.39998312  0.61142969  0.86024464     0.18500
C669        C  0.42184620  0.63588222  0.87991115     0.15700
C670        C  0.45060918  0.65474651  0.86239361    -0.18800
C671        C  0.41608855  0.63941170  0.91738316    -0.20600
C672        C  0.38956019  0.61815202  0.93542408    -0.13200
C673        C  0.36755542  0.59398731  0.91614501     0.03500
C674        C  0.37223169  0.59123984  0.87835884    -0.25300
H675        H  0.44397659  0.61577585  0.77904730     0.08600
H676        H  0.39101360  0.58766801  0.80773581     0.12200
H677        H  0.46777231  0.67268959  0.87805395     0.12100
H678        H  0.43280598  0.65784393  0.93292381     0.11900
H679        H  0.38589829  0.62083166  0.96447517     0.12400
H680        H  0.35520260  0.57250197  0.86345495     0.14400
C681        C  0.46558322  0.63936775  0.17501569    -0.05700
C682        C  0.43018353  0.64931788  0.18654611    -0.05600
C683        C  0.39916194  0.63672035  0.16884814    -0.23800
C684        C  0.40237559  0.61269205  0.13975592     0.18500
C685        C  0.43724502  0.60049891  0.12937740     0.15700
C686        C  0.46810912  0.61281185  0.14759255    -0.18800
C687        C  0.44091771  0.57593757  0.10088662    -0.20600
C688        C  0.41043391  0.56384058  0.08248535    -0.13200
C689        C  0.37527739  0.57568019  0.09222029     0.03500
C690        C  0.37146237  0.60013812  0.12122871    -0.25300
H691        H  0.42643674  0.66749429  0.20916858     0.08600
H692        H  0.37266092  0.64578716  0.17798496     0.12200
H693        H  0.49388228  0.60065030  0.14056289     0.12100
H694        H  0.46747563  0.56622262  0.09259352     0.11900
H695        H  0.41463058  0.54489313  0.06053007     0.12400
H696        H  0.34468781  0.60939883  0.12931754     0.14400
C697        C  0.36740808  0.41928024  0.08962306    -0.05700
C698        C  0.40250826  0.41965011  0.07402671    -0.05600
C699        C  0.43199779  0.40537616  0.09271423    -0.23800
C700        C  0.42736873  0.39053150  0.12773123     0.18500
C701        C  0.39236029  0.38865705  0.14366228     0.15700
C702        C  0.36235963  0.40302092  0.12449401    -0.18800
C703        C  0.38830964  0.37228402  0.17828696    -0.20600
C704        C  0.41884668  0.35994950  0.19742711    -0.13200
C705        C  0.45453449  0.36565647  0.18356881     0.03500
C706        C  0.45761767  0.37822093  0.14706722    -0.25300
H707        H  0.40740605  0.43139456  0.04719684     0.08600
H708        H  0.45868507  0.40667945  0.07996342     0.12200
H709        H  0.33553170  0.40233840  0.13696027     0.12100
H710        H  0.36160673  0.36929575  0.19073443     0.11900
H711        H  0.41467524  0.34738549  0.22401710     0.12400
H712        H  0.48352677  0.37877340  0.13298967     0.14400
C713        C  0.61876670  0.44057945  0.10947957    -0.05700
C714        C  0.59153230  0.46522227  0.12004890    -0.05600
C715        C  0.56273587  0.45382469  0.14282978    -0.23800
C716        C  0.55982991  0.41715419  0.15486544     0.18500
C717        C  0.58671355  0.39185645  0.14441807     0.15700
C718        C  0.61647271  0.40382607  0.12231067    -0.18800
C719        C  0.58306723  0.35506800  0.15609398    -0.20600
C720        C  0.55254392  0.34318850  0.17657985    -0.13200
C721        C  0.52443077  0.36774289  0.18589897     0.03500
C722        C  0.52991224  0.40531137  0.17637846    -0.25300
H723        H  0.59275502  0.49364669  0.11091567     0.08600
H724        H  0.54233313  0.47363948  0.15052197     0.12200
H725        H  0.63716418  0.38444945  0.11427119     0.12100
H726        H  0.60369895  0.33526385  0.14902839     0.11900
H727        H  0.55158172  0.31473331  0.18518608     0.12400
H728        H  0.50950587  0.42510224  0.18419545     0.14400
C729        C  0.63174466  0.60861724  0.08436416    -0.05700
C730        C  0.60335158  0.62449926  0.06454038    -0.05600
C731        C  0.57411910  0.64078251  0.08257840    -0.23800
C732        C  0.57215299  0.63963585  0.12062748     0.18500
C733        C  0.60103288  0.62418469  0.14047604     0.15700
C734        C  0.63123056  0.60998797  0.12224733    -0.18800
C735        C  0.59847171  0.62140025  0.17821421    -0.20600
C736        C  0.56641052  0.63087401  0.19600412    -0.13200
C737        C  0.53595273  0.64365748  0.17652868     0.03500
C738        C  0.54093123  0.65152538  0.13908678    -0.25300
H739        H  0.60341849  0.62345028  0.03517198     0.08600
H740        H  0.55215389  0.65230638  0.06684340     0.12200
H741        H  0.65287228  0.59716831  0.13752280     0.12100
H742        H  0.62081461  0.61063923  0.19394199     0.11900
H743        H  0.56598958  0.62840287  0.22525487     0.12400
H744        H  0.51915905  0.66417085  0.12389658     0.14400
C745        C  0.52461519  0.63961150  0.84039579    -0.05700
C746        C  0.52208237  0.60082915  0.84396938    -0.05600
C747        C  0.54589171  0.58091167  0.86560138    -0.23800
C748        C  0.57305006  0.59904672  0.88453085     0.18500
C749        C  0.57481857  0.63785881  0.88338314     0.15700
C750        C  0.54990005  0.65793653  0.86235110    -0.18800
C751        C  0.60236777  0.65584987  0.90234620    -0.20600
C752        C  0.62875865  0.63554012  0.92074422    -0.13200
C753        C  0.62743849  0.59703941  0.92128128     0.03500
C754        C  0.59898850  0.57892831  0.90393243    -0.25300
H755        H  0.50240399  0.58567402  0.82844065     0.08600
H756        H  0.54378926  0.55120474  0.86652825     0.12200
H757        H  0.55116929  0.68756273  0.86265716     0.12100
H758        H  0.60408275  0.68556238  0.90214999     0.11900
H759        H  0.65010211  0.64985126  0.93478344     0.12400
H760        H  0.59783338  0.54918501  0.90451778     0.14400
C761        C  0.61666920  0.43195823  0.92392941    -0.05700
C762        C  0.58953468  0.45660991  0.91312807    -0.05600
C763        C  0.56234562  0.44576963  0.88960973    -0.23800
C764        C  0.56110766  0.40966888  0.87718763     0.18500
C765        C  0.58714214  0.38398969  0.88881409     0.15700
C766        C  0.61539407  0.39548086  0.91168651    -0.18800
C767        C  0.58413523  0.34742154  0.87744764    -0.20600
C768        C  0.55566284  0.33648240  0.85477868    -0.13200
C769        C  0.53034273  0.36228830  0.84169580     0.03500
C770        C  0.53387487  0.39899275  0.85348746    -0.25300
H771        H  0.58999177  0.48477239  0.92205389     0.08600
H772        H  0.54225650  0.46567489  0.88113426     0.12200
H773        H  0.63605197  0.37619299  0.92014396     0.12100
H774        H  0.60343427  0.32708036  0.88666179     0.11900
H775        H  0.55351385  0.30779561  0.84823314     0.12400
H776        H  0.51457777  0.41944099  0.84441113     0.14400
C777        C  0.96492283  0.33169861  0.13424019    -0.05700
C778        C  0.96487908  0.33195382  0.09584085    -0.05600
C779        C  0.93980813  0.35275570  0.07620803    -0.23800
C780        C  0.91415449  0.37422537  0.09435836     0.18500
C781        C  0.91434021  0.37517705  0.13265788     0.15700
C782        C  0.94024323  0.35505187  0.15212904    -0.18800
C783        C  0.88836356  0.39611599  0.15104852    -0.20600
C784        C  0.86224231  0.41571671  0.13172940    -0.13200
C785        C  0.86230410  0.41569050  0.09367181     0.03500
C786        C  0.88843577  0.39495925  0.07499989    -0.25300
H787        H  0.98418725  0.31541042  0.08102966     0.08600
H788        H  0.94034014  0.35181956  0.04683193     0.12200
H789        H  0.94096615  0.35811659  0.18121763     0.12100
H790        H  0.88801298  0.39704815  0.18042412     0.11900
H791        H  0.84232964  0.43156962  0.14651212     0.12400
H792        H  0.88832610  0.39455621  0.04558184     0.14400
C793        C  0.96123437  0.34690483  0.85872572    -0.05700
C794        C  0.95871250  0.38406613  0.84721817    -0.05600
C795        C  0.93205971  0.40712171  0.86118427    -0.23800
C796        C  0.90779654  0.39414044  0.88801910     0.18500
C797        C  0.91033484  0.35748135  0.90082030     0.15700
C798        C  0.93697595  0.33434935  0.88645610    -0.18800
C799        C  0.88641730  0.34461849  0.92824014    -0.20600
C800        C  0.86011166  0.36786554  0.94265303    -0.13200
C801        C  0.85772362  0.40432237  0.93018111     0.03500
C802        C  0.88155790  0.41743259  0.90291174    -0.25300
H803        H  0.97751177  0.39511896  0.82690724     0.08600
H804        H  0.93073553  0.43526483  0.85128477     0.12200
H805        H  0.93905106  0.30705193  0.89809156     0.12100
H806        H  0.88812752  0.31666046  0.93859574     0.11900
H807        H  0.84207155  0.35766193  0.96405630     0.12400
H808        H  0.87968520  0.44572277  0.89347700     0.14400
C809        C  0.87395756  0.58971222  0.92028402    -0.05700
C810        C  0.90368017  0.59571737  0.94300134    -0.05600
C811        C  0.93212077  0.61907483  0.93256554    -0.23800
C812        C  0.93312716  0.63495398  0.89780504     0.18500
C813        C  0.90546041  0.62677232  0.87302901     0.15700
C814        C  0.87501164  0.60528690  0.88482633    -0.18800
C815        C  0.90945846  0.63968320  0.83700976    -0.20600
C816        C  0.94033847  0.66035389  0.82595752    -0.13200
C817        C  0.96674417  0.67134836  0.85133500     0.03500
C818        C  0.96205015  0.65820404  0.88746675    -0.25300
H819        H  0.90460932  0.58270728  0.96945854     0.08600
H820        H  0.95380299  0.62406780  0.95152759     0.12200
H821        H  0.85288749  0.60005891  0.86645920     0.12100
H822        H  0.88922989  0.63287597  0.81707007     0.11900
H823        H  0.94286688  0.66743113  0.79753145     0.12400
H824        H  0.98169751  0.66562597  0.90776214     0.14400
C825        C  0.96762993  0.66523303  0.15090750    -0.05700
C826        C  0.94337449  0.64786773  0.17602326    -0.05600
C827        C  0.91434953  0.62627204  0.16414858    -0.23800
C828        C  0.90957042  0.62028632  0.12705780     0.18500
C829        C  0.93524410  0.63499372  0.10189607     0.15700
C830        C  0.96377595  0.65695006  0.11385266    -0.18800
C831        C  0.93164326  0.62822868  0.06488791    -0.20600
C832        C  0.90232854  0.60772548  0.05278832    -0.13200
C833        C  0.87602454  0.59379298  0.07719901     0.03500
C834        C  0.87969224  0.59997139  0.11451133    -0.25300
H835        H  0.94619340  0.65079073  0.20492722     0.08600
H836        H  0.89558858  0.61431059  0.18401486     0.12200
H837        H  0.98260084  0.66883064  0.09397608     0.12100
H838        H  0.95118706  0.63922638  0.04523598     0.11900
H839        H  0.89948571  0.60368578  0.02412373     0.12400
H840        H  0.85961219  0.58885190  0.13353167     0.14400
C841        C  0.12939452  0.01181072  0.73639925    -0.05700
C842        C  0.15034688  0.01548074  0.76811410    -0.05600
C843        C  0.13395895  0.02137038  0.80176564    -0.23800
C844        C  0.09624955  0.02451235  0.80486027     0.18500
C845        C  0.07463799  0.02282675  0.77365835     0.15700
C846        C  0.09129953  0.01690987  0.73974131    -0.18800
C847        C  0.03668603  0.02623848  0.77716656    -0.20600
C848        C  0.02030709  0.02931337  0.81158478    -0.13200
C849        C  0.04177109  0.02921342  0.84276957     0.03500
C850        C  0.07981550  0.02822343  0.83895307    -0.25300
H851        H  0.17963313  0.01437881  0.76755333     0.08600
H852        H  0.15089991  0.02326842  0.82552176     0.12200
H853        H  0.07455382  0.01544850  0.71583312     0.12100
H854        H  0.01962664  0.02520645  0.75346358     0.11900
H855        H  0.99095544  0.02981825  0.81394415     0.12400
H856        H  0.09669038  0.02862335  0.86288045     0.14400
C857        C  0.11941206  0.03021238  0.26592244    -0.05700
C858        C  0.09384091  0.05886645  0.26126546    -0.05600
C859        C  0.07985252  0.06763002  0.22721263    -0.23800
C860        C  0.09258752  0.04986255  0.19635402     0.18500
C861        C  0.12005707  0.02318905  0.19987137     0.15700
C862        C  0.13245294  0.01293901  0.23435994    -0.18800
C863        C  0.13394982  0.00633379  0.16885659    -0.20600
C864        C  0.11870032  0.01370663  0.13509983    -0.13200
C865        C  0.08942854  0.03804227  0.13181228     0.03500
C866        C  0.07734394  0.05720199  0.16225206    -0.25300
H867        H  0.08421845  0.07516624  0.28349822     0.08600
H868        H  0.05927516  0.08866825  0.22499865     0.12200
H869        H  0.15250367  0.99142087  0.23669862     0.12100
H870        H  0.15533950  0.98613604  0.17093861     0.11900
H871        H  0.12773081  0.99808778  0.11194033     0.12400
H872        H  0.05411073  0.07522477  0.15999007     0.14400
C873        C  0.18801710  0.51846123  0.30655136    -0.05700
C874        C  0.19714879  0.55255687  0.28972776    -0.05600
C875        C  0.20610871  0.55533898  0.25281601    -0.23800
C876        C  0.20920775  0.52375213  0.23197946     0.18500
C877        C  0.20124870  0.48916987  0.24814553     0.15700
C878        C  0.18945387  0.48683103  0.28468856    -0.18800
C879        C  0.20682987  0.45734593  0.22794251    -0.20600
C880        C  0.21963392  0.45983264  0.19202018    -0.13200
C881        C  0.22671673  0.49424452  0.17519908     0.03500
C882        C  0.22136934  0.52614968  0.19562643    -0.25300
H883        H  0.19888914  0.57717419  0.30567160     0.08600
H884        H  0.21272738  0.58208709  0.24109747     0.12200
H885        H  0.18466034  0.45989670  0.29675706     0.12100
H886        H  0.20151716  0.43046108  0.23999303     0.11900
H887        H  0.22336129  0.43467982  0.17722128     0.12400
H888        H  0.22668105  0.55292827  0.18332517     0.14400
C889        C  0.35288938  0.54407682  0.41277185    -0.05700
C890        C  0.33124909  0.57445946  0.42118727    -0.05600
C891        C  0.29563853  0.57687946  0.40826345    -0.23800
C892        C  0.28122014  0.54888130  0.38679950     0.18500
C893        C  0.30380354  0.51959878  0.37643381     0.15700
C894        C  0.33937325  0.51738457  0.38941010    -0.18800
C895        C  0.29003415  0.49206369  0.35449562    -0.20600
C896        C  0.25350641  0.49189112  0.34511490    -0.13200
C897        C  0.22920278  0.51886039  0.35786308     0.03500
C898        C  0.24437824  0.54885007  0.37674730    -0.25300
H899        H  0.34106850  0.59509636  0.43955410     0.08600
H900        H  0.27890026  0.59974887  0.41638640     0.12200
H901        H  0.35602227  0.49390332  0.38280053     0.12100
H902        H  0.30723053  0.46983447  0.34560071     0.11900
H903        H  0.24373675  0.46918317  0.32935511     0.12400
H904        H  0.22784335  0.57197136  0.38431103     0.14400
C905        C  0.79477007  0.50545261  0.31176876    -0.05700
C906        C  0.77647861  0.47356517  0.29993299    -0.05600
C907        C  0.76799263  0.46879692  0.26352550    -0.23800
C908        C  0.77707312  0.49592939  0.23765320     0.18500
C909        C  0.79717919  0.52704338  0.24826391     0.15700
C910        C  0.80719682  0.53088889  0.28480776    -0.18800
C911        C  0.80569737  0.55452784  0.22234528    -0.20600
C912        C  0.79344361  0.55170246  0.18669996    -0.13200
C913        C  0.77316103  0.52091200  0.17587436     0.03500
C914        C  0.76567985  0.49276364  0.20152792    -0.25300
H915        H  0.76685816  0.45302051  0.31941509     0.08600
H916        H  0.75290531  0.44453430  0.25589795     0.12200
H917        H  0.82324355  0.55455770  0.29183279     0.12100
H918        H  0.82116008  0.57861565  0.22980189     0.11900
H919        H  0.80021274  0.57355997  0.16744419     0.12400
H920        H  0.75028385  0.46878403  0.19361686     0.14400
C921        C  0.75911876  0.51924091  0.36993400    -0.05700
C922        C  0.72771087  0.52242822  0.34834784    -0.05600
C923        C  0.69348537  0.52687616  0.36399451    -0.23800
C924        C  0.68947998  0.52950394  0.40155119     0.18500
C925        C  0.72040993  0.52959067  0.42370595     0.15700
C926        C  0.75501192  0.52502562  0.40776053    -0.18800
C927        C  0.71589203  0.53315644  0.46144687    -0.20600
C928        C  0.68091142  0.53478977  0.47700032    -0.13200
C929        C  0.65009575  0.53273466  0.45503908     0.03500
C930        C  0.65478771  0.53121730  0.41722787    -0.25300
H931        H  0.72884376  0.52156644  0.31911360     0.08600
H932        H  0.66997959  0.52788689  0.34659080     0.12200
H933        H  0.77874506  0.52442755  0.42487113     0.12100
H934        H  0.73928970  0.53356885  0.47898212     0.11900
H935        H  0.67800617  0.53595263  0.50612758     0.12400
H936        H  0.63118125  0.53020088  0.39992918     0.14400
C937        C  0.85302108  0.00259398  0.74267147    -0.05700
C938        C  0.84381336  0.03178646  0.76578939    -0.05600
C939        C  0.84764174  0.02873731  0.80308505    -0.23800
C940        C  0.86171393  0.99674719  0.81852190     0.18500
C941        C  0.87198372  0.96727500  0.79634073     0.15700
C942        C  0.86706912  0.97006486  0.75862440    -0.18800
C943        C  0.88762421  0.93590703  0.81236945    -0.20600
C944        C  0.89561282  0.93525193  0.84948257    -0.13200
C945        C  0.88702353  0.96552559  0.87092776     0.03500
C946        C  0.86773419  0.99489646  0.85571362    -0.25300
H947        H  0.83245084  0.05689159  0.75474675     0.08600
H948        H  0.83998272  0.05168004  0.81983056     0.12200
H949        H  0.87350900  0.94655468  0.74232275     0.12100
H950        H  0.89568741  0.91294372  0.79587136     0.11900
H951        H  0.91103209  0.91259102  0.86065803     0.12400
H952        H  0.86095997  0.01830392  0.87228273     0.14400
C953        C  0.93230808  0.99199028  0.16677041    -0.05700
C954        C  0.94884248  0.01643645  0.19058806    -0.05600
C955        C  0.93100785  0.02651876  0.22267308    -0.23800
C956        C  0.89660933  0.01178635  0.23169893     0.18500
C957        C  0.88095901  0.98542357  0.20889759     0.15700
C958        C  0.89857753  0.97614201  0.17632737    -0.18800
C959        C  0.84757635  0.96939454  0.21859769    -0.20600
C960        C  0.83023251  0.97869232  0.25098796    -0.13200
C961        C  0.84460667  0.00583668  0.27406284     0.03500
C962        C  0.87769230  0.02305409  0.26302363    -0.25300
H963        H  0.97435564  0.02971600  0.18310961     0.08600
H964        H  0.94373072  0.04648806  0.23997509     0.12200
H965        H  0.88536612  0.95787105  0.15757528     0.12100
H966        H  0.83525360  0.94891288  0.20157388     0.11900
H967        H  0.80549816  0.96400825  0.25839879     0.12400
H968        H  0.88965621  0.04463278  0.27861727     0.14400
C969        C  0.18127416  0.51274081  0.70069133    -0.05700
C970        C  0.15244431  0.52067804  0.72499521    -0.05600
C971        C  0.15813762  0.52542431  0.76220912    -0.23800
C972        C  0.19277857  0.52114533  0.77704722     0.18500
C973        C  0.22228205  0.51324195  0.75364803     0.15700
C974        C  0.21654013  0.50947208  0.71583831    -0.18800
C975        C  0.25681613  0.50779654  0.76877865    -0.20600
C976        C  0.26171838  0.50884856  0.80656869    -0.13200
C977        C  0.23247113  0.51620743  0.83016917     0.03500
C978        C  0.19810530  0.52309153  0.81502827    -0.25300
H979        H  0.12493416  0.52255240  0.71509485     0.08600
H980        H  0.13504009  0.53126772  0.77963728     0.12200
H981        H  0.23950838  0.50235412  0.69885825     0.12100
H982        H  0.27991624  0.50169582  0.75144908     0.11900
H983        H  0.28837550  0.50341646  0.81747935     0.12400
H984        H  0.17524882  0.52851829  0.83294357     0.14400
C985        C  0.20750609  0.49425989  0.63754578    -0.05700
C986        C  0.21409324  0.45973619  0.62126794    -0.05600
C987        C  0.24500354  0.45352106  0.59988017    -0.23800
C988        C  0.26885691  0.48225958  0.59098452     0.18500
C989        C  0.26094549  0.51779620  0.60357518     0.15700
C990        C  0.23178905  0.52315634  0.62787887    -0.18800
C991        C  0.28247717  0.54749369  0.59177479    -0.20600
C992        C  0.31338340  0.54151897  0.57059920    -0.13200
C993        C  0.32400291  0.50570356  0.56153025     0.03500
C994        C  0.30072433  0.47613384  0.57027437    -0.25300
H995        H  0.19552433  0.43699799  0.62333613     0.08600
H996        H  0.24957979  0.42633690  0.58929222     0.12200
H997        H  0.22695884  0.55039960  0.63824095     0.12100
H998        H  0.27615168  0.57519740  0.59991699     0.11900
H999        H  0.33063289  0.56485355  0.56342914     0.12400
H1000       H  0.30843161  0.44849254  0.56309749     0.14400
C1001       C  0.76192297  0.49186408  0.83684708    -0.05700
C1002       C  0.78243530  0.46144292  0.82578390    -0.05600
C1003       C  0.79459661  0.45847899  0.78980534    -0.23800
C1004       C  0.78600666  0.48557543  0.76388842     0.18500
C1005       C  0.76395845  0.51533922  0.77442114     0.15700
C1006       C  0.75249173  0.51860510  0.81080210    -0.18800
C1007       C  0.75356184  0.54132081  0.74838079    -0.20600
C1008       C  0.76515628  0.53818435  0.71246849    -0.13200
C1009       C  0.78901550  0.50996520  0.70138794     0.03500
C1010       C  0.79876641  0.48321834  0.72767237    -0.25300
H1011       H  0.79027557  0.44050163  0.84533456     0.08600
H1012       H  0.81104908  0.43516445  0.78236742     0.12200
H1013       H  0.73633081  0.54194656  0.81885973     0.12100
H1014       H  0.73603136  0.56389247  0.75565204     0.11900
H1015       H  0.75565531  0.55831002  0.69285042     0.12400
H1016       H  0.81489846  0.45983726  0.72000073     0.14400
C1017       C  0.76014116  0.49841557  0.64456518    -0.05700
C1018       C  0.74255734  0.46546516  0.65670180    -0.05600
C1019       C  0.70748698  0.45618449  0.64594049    -0.23800
C1020       C  0.68858585  0.47940714  0.62247032     0.18500
C1021       C  0.70611163  0.51190009  0.60921066     0.15700
C1022       C  0.74136072  0.52136185  0.62039208    -0.18800
C1023       C  0.68768494  0.53521902  0.58567055    -0.20600
C1024       C  0.65194319  0.52759959  0.57677563    -0.13200
C1025       C  0.63322326  0.49632844  0.59080695     0.03500
C1026       C  0.65215200  0.47150496  0.61300333    -0.25300
H1027       H  0.75621312  0.44680983  0.67511654     0.08600
H1028       H  0.69501077  0.43108050  0.65644163     0.12200
H1029       H  0.75337917  0.54701872  0.61095361     0.12100
H1030       H  0.70053376  0.56002055  0.57485766     0.11900
H1031       H  0.63837109  0.54736846  0.55950675     0.12400
H1032       H  0.63825736  0.44747546  0.62422712     0.14400
C1033       C  0.98718167  0.30710980  0.19641136    -0.05700
C1034       C  0.95315240  0.29450396  0.21031824    -0.05600
C1035       C  0.94764779  0.28642132  0.24712469    -0.23800
C1036       C  0.97635962  0.28920463  0.27135221     0.18500
C1037       C  0.01073251  0.30146108  0.25824975     0.15700
C1038       C  0.01584148  0.31090165  0.22121891    -0.18800
C1039       C  0.03983588  0.30288951  0.28223041    -0.20600
C1040       C  0.03502540  0.29231207  0.31859927    -0.13200
C1041       C  0.00088012  0.28027084  0.33224380     0.03500
C1042       C  0.97147810  0.27907025  0.30825467    -0.25300
H1043       H  0.93078286  0.28975065  0.19215287     0.08600
H1044       H  0.92117194  0.27669092  0.25637754     0.12200
H1045       H  0.04272562  0.31885582  0.21163626     0.12100
H1046       H  0.06648199  0.31197802  0.27283256     0.11900
H1047       H  0.05827441  0.29407714  0.33620467     0.12400
H1048       H  0.94500517  0.26991149  0.31811300     0.14400
C1049       C  0.98862655  0.31809319  0.80158767    -0.05700
C1050       C  0.95786437  0.33094978  0.78234801    -0.05600
C1051       C  0.95161072  0.32127720  0.74652010    -0.23800
C1052       C  0.97499247  0.29740071  0.72873748     0.18500
C1053       C  0.00575021  0.28386594  0.74705069     0.15700
C1054       C  0.01258202  0.29455188  0.78289124    -0.18800
C1055       C  0.02888946  0.25941606  0.72932225    -0.20600
C1056       C  0.02222645  0.24955080  0.69351370    -0.13200
C1057       C  0.99216368  0.26370890  0.67470071     0.03500
C1058       C  0.96814973  0.28704152  0.69285089    -0.25300
H1059       H  0.93692327  0.34711175  0.79484103     0.08600
H1060       H  0.92767328  0.33167673  0.73305951     0.12200
H1061       H  0.03572229  0.28319631  0.79699583     0.12100
H1062       H  0.05250382  0.24844245  0.74288756     0.11900
H1063       H  0.04129112  0.23160432  0.68006841     0.12400
H1064       H  0.94524541  0.29859251  0.67850213     0.14400
C1065       C  0.90415179  0.38132407  0.41638921    -0.05700
C1066       C  0.92296215  0.40335136  0.39071113    -0.05600
C1067       C  0.90468978  0.43028323  0.37063560    -0.23800
C1068       C  0.86755668  0.43646079  0.37691144     0.18500
C1069       C  0.84858523  0.41466705  0.40306346     0.15700
C1070       C  0.86678165  0.38659038  0.42203612    -0.18800
C1071       C  0.81192949  0.42180726  0.41026299    -0.20600
C1072       C  0.79489963  0.45182373  0.39375881    -0.13200
C1073       C  0.81407957  0.47568871  0.36940960     0.03500
C1074       C  0.84955778  0.46517812  0.35874188    -0.25300
H1075       H  0.95177763  0.39942666  0.38598311     0.08600
H1076       H  0.91980095  0.44692078  0.35092295     0.12200
H1077       H  0.85226343  0.36966020  0.44199159     0.12100
H1078       H  0.79661780  0.40476475  0.42948762     0.11900
H1079       H  0.76658687  0.45584674  0.40040499     0.12400
H1080       H  0.86429050  0.48177403  0.33867612     0.14400
C1081       C  0.89341371  0.37767938  0.57952999    -0.05700
C1082       C  0.85889344  0.38049860  0.56428844    -0.05600
C1083       C  0.83394095  0.40576054  0.57737629    -0.23800
C1084       C  0.84286561  0.42833187  0.60643626     0.18500
C1085       C  0.87741115  0.42582607  0.62233062     0.15700
C1086       C  0.90286672  0.40054151  0.60850487    -0.18800
C1087       C  0.88572856  0.44902224  0.65125745    -0.20600
C1088       C  0.86004835  0.47431082  0.66416660    -0.13200
C1089       C  0.82505299  0.47663277  0.64906353     0.03500
C1090       C  0.81762114  0.45367134  0.61926490    -0.25300
H1091       H  0.85134653  0.36321503  0.54191229     0.08600
H1092       H  0.80751928  0.40751160  0.56483636     0.12200
H1093       H  0.92962092  0.39841385  0.62027542     0.12100
H1094       H  0.91224998  0.44794367  0.66362032     0.11900
H1095       H  0.86765931  0.49253340  0.68573629     0.12400
H1096       H  0.79252344  0.45602042  0.60452210     0.14400
C1097       C  0.06320581  0.38251157  0.59766656    -0.05700
C1098       C  0.04707507  0.41737919  0.59493202    -0.05600
C1099       C  0.06096201  0.44700653  0.61363497    -0.23800
C1100       C  0.09169089  0.44261680  0.63506547     0.18500
C1101       C  0.10660716  0.40746065  0.64070317     0.15700
C1102       C  0.09203387  0.37726846  0.62214374    -0.18800
C1103       C  0.13677992  0.40393342  0.66352256    -0.20600
C1104       C  0.15527654  0.43548399  0.67516193    -0.13200
C1105       C  0.14508807  0.47050358  0.66191304     0.03500
C1106       C  0.10957519  0.47348555  0.64805433    -0.25300
H1107       H  0.02410546  0.42219704  0.57744783     0.08600
H1108       H  0.04892709  0.47382591  0.60958316     0.12200
H1109       H  0.10420592  0.35041884  0.62532423     0.12100
H1110       H  0.14768265  0.37709803  0.67000246     0.11900
H1111       H  0.18049001  0.43220282  0.68965738     0.12400
H1112       H  0.09716088  0.49997440  0.64350383     0.14400
C1113       C  0.17108614  0.47820105  0.36315556    -0.05700
C1114       C  0.18953944  0.45433330  0.38736011    -0.05600
C1115       C  0.17191105  0.42443757  0.40438332    -0.23800
C1116       C  0.13472343  0.41835828  0.39961653     0.18500
C1117       C  0.11541827  0.44174739  0.37588973     0.15700
C1118       C  0.13386010  0.47051490  0.35695381    -0.18800
C1119       C  0.07765783  0.43694469  0.37284626    -0.20600
C1120       C  0.05924220  0.40989458  0.39371668    -0.13200
C1121       C  0.07830490  0.38629799  0.41714326     0.03500
C1122       C  0.11626426  0.39021951  0.41936059    -0.25300
H1123       H  0.21723800  0.45930872  0.39517635     0.08600
H1124       H  0.18708196  0.40715747  0.42292215     0.12200
H1125       H  0.11869494  0.48863704  0.33919904     0.12100
H1126       H  0.06222434  0.45465644  0.35494718     0.11900
H1127       H  0.03007391  0.40702549  0.39120498     0.12400
H1128       H  0.13119675  0.37215586  0.43739229     0.14400
C1129       C  0.13561028  0.04075998  0.67572269    -0.05700
C1130       C  0.14603795  0.07648891  0.68647215    -0.05600
C1131       C  0.13383135  0.10821822  0.66801727    -0.23800
C1132       C  0.10937619  0.10544369  0.63917553     0.18500
C1133       C  0.09724991  0.07021888  0.62943607     0.15700
C1134       C  0.10974007  0.03883936  0.64770050    -0.18800
C1135       C  0.07192813  0.06646399  0.60185574    -0.20600
C1136       C  0.05869676  0.09717560  0.58369932    -0.13200
C1137       C  0.07018332  0.13289224  0.59246211     0.03500
C1138       C  0.09584017  0.13687415  0.62053213    -0.25300
H1139       H  0.16353058  0.07986793  0.70959971     0.08600
H1140       H  0.14297365  0.13492031  0.67681921     0.12200
H1141       H  0.09718417  0.01313022  0.64069250     0.12100
H1142       H  0.06216884  0.03955857  0.59424417     0.11900
H1143       H  0.03900702  0.09260001  0.56265305     0.12400
H1144       H  0.10491202  0.16404453  0.62801349     0.14400
C1145       C  0.90742243  0.13163332  0.58765579    -0.05700
C1146       C  0.88120509  0.11014062  0.57048952    -0.05600
C1147       C  0.86303692  0.08191639  0.58969968    -0.23800
C1148       C  0.87133838  0.07449986  0.62616476     0.18500
C1149       C  0.89815130  0.09572476  0.64331844     0.15700
C1150       C  0.91580253  0.12440402  0.62405760    -0.18800
C1151       C  0.90721832  0.08763944  0.67928830    -0.20600
C1152       C  0.88948944  0.05925124  0.69847352    -0.13200
C1153       C  0.86132371  0.03862597  0.68252248     0.03500
C1154       C  0.85343507  0.04613937  0.64565837    -0.25300
H1155       H  0.87456078  0.11549899  0.54234650     0.08600
H1156       H  0.84261346  0.06585666  0.57604756     0.12200
H1157       H  0.93639056  0.14080519  0.63713557     0.12100
H1158       H  0.92840785  0.10304114  0.69253823     0.11900
H1159       H  0.89881610  0.05335610  0.72559059     0.12400
H1160       H  0.83298240  0.02983430  0.63228654     0.14400
C1161       C  0.91733758  0.13474073  0.40724665    -0.05700
C1162       C  0.93827821  0.10329620  0.40066957    -0.05600
C1163       C  0.92490147  0.07465159  0.37967855    -0.23800
C1164       C  0.88985075  0.07628007  0.36527706     0.18500
C1165       C  0.86830851  0.10742702  0.37168088     0.15700
C1166       C  0.88232050  0.13679311  0.39211921    -0.18800
C1167       C  0.83278360  0.10808159  0.35843091    -0.20600
C1168       C  0.81867470  0.07828604  0.33929588    -0.13200
C1169       C  0.84013193  0.04721143  0.33112554     0.03500
C1170       C  0.87589608  0.04687873  0.34520508    -0.25300
H1171       H  0.96533794  0.10093510  0.41162178     0.08600
H1172       H  0.94188245  0.05094400  0.37510815     0.12200
H1173       H  0.86565197  0.16063793  0.39713352     0.12100
H1174       H  0.81541885  0.13134472  0.36370727     0.11900
H1175       H  0.79049926  0.07995737  0.33190209     0.12400
H1176       H  0.89292458  0.02315614  0.34087816     0.14400
C1177       C  0.11921997  0.04318671  0.33365636    -0.05700
C1178       C  0.08182338  0.03819720  0.34232472    -0.05600
C1179       C  0.06438638  0.05954662  0.36783558    -0.23800
C1180       C  0.08336132  0.08758816  0.38456384     0.18500
C1181       C  0.12095260  0.09251325  0.37761710     0.15700
C1182       C  0.13904253  0.06898260  0.35380381    -0.18800
C1183       C  0.13935820  0.12203450  0.39328101    -0.20600
C1184       C  0.12013407  0.14739551  0.41390390    -0.13200
C1185       C  0.08275993  0.14246268  0.42037433     0.03500
C1186       C  0.06479491  0.11188418  0.40676001    -0.25300
H1187       H  0.06556763  0.01825569  0.32821061     0.08600
H1188       H  0.03558789  0.05532039  0.37303839     0.12200
H1189       H  0.16806554  0.07200664  0.35064569     0.12100
H1190       H  0.16815011  0.12640230  0.38827743     0.11900
H1191       H  0.13430703  0.17090577  0.42464704     0.12400
H1192       H  0.03583054  0.10832016  0.41158299     0.14400
C1193       C  0.00204702  0.69537836  0.20350573    -0.05700
C1194       C  0.03425808  0.68769792  0.22276904    -0.05600
C1195       C  0.03795424  0.69774969  0.25897400    -0.23800
C1196       C  0.01002869  0.71644821  0.27675704     0.18500
C1197       C  0.97752853  0.72395172  0.25824683     0.15700
C1198       C  0.97367185  0.71317074  0.22226169    -0.18800
C1199       C  0.94958119  0.74293886  0.27570387    -0.20600
C1200       C  0.95361129  0.75408458  0.31140922    -0.13200
C1201       C  0.98573308  0.74661577  0.33029778     0.03500
C1202       C  0.01408519  0.72801709  0.31262724    -0.25300
H1203       H  0.05764835  0.67556416  0.20992335     0.08600
H1204       H  0.06316324  0.69185685  0.27272880     0.12200
H1205       H  0.94901722  0.72017521  0.20798111     0.12100
H1206       H  0.92451660  0.74904167  0.26179718     0.11900
H1207       H  0.93134014  0.76828946  0.32439505     0.12400
H1208       H  0.03885857  0.72174449  0.32700118     0.14400
C1209       C  0.99058894  0.74927795  0.67065575    -0.05700
C1210       C  0.95854457  0.75820221  0.68973467    -0.05600
C1211       C  0.95495675  0.75063278  0.72680443    -0.23800
C1212       C  0.98318416  0.73360029  0.74555770     0.18500
C1213       C  0.01562245  0.72480592  0.72684069     0.15700
C1214       C  0.01931042  0.73290930  0.68954705    -0.18800
C1215       C  0.04385310  0.70817907  0.74580116    -0.20600
C1216       C  0.03965069  0.69937263  0.78261598    -0.13200
C1217       C  0.00644541  0.70563602  0.80148413     0.03500
C1218       C  0.97923351  0.72489899  0.78263289    -0.25300
H1219       H  0.93596826  0.77092441  0.67590162     0.08600
H1220       H  0.92987358  0.75762305  0.74067546     0.12200
H1221       H  0.04401447  0.72561371  0.67514062     0.12100
H1222       H  0.06937511  0.70217697  0.73222758     0.11900
H1223       H  0.06318713  0.68832880  0.79599389     0.12400
H1224       H  0.95448419  0.73243380  0.79683686     0.14400
C1225       C  0.16460881  0.54471557  0.36801259    -0.05700
C1226       C  0.16537095  0.54561948  0.40634365    -0.05600
C1227       C  0.14343244  0.56932923  0.42602793    -0.23800
C1228       C  0.11940592  0.59277052  0.40819835     0.18500
C1229       C  0.11724516  0.59214706  0.36995152     0.15700
C1230       C  0.13912105  0.56762696  0.35018027    -0.18800
C1231       C  0.09324710  0.61619566  0.35226471    -0.20600
C1232       C  0.07246236  0.64106132  0.37229324    -0.13200
C1233       C  0.07442834  0.64145425  0.41035412     0.03500
C1234       C  0.09760425  0.61690521  0.42814474    -0.25300
H1235       H  0.18325528  0.52751982  0.42125659     0.08600
H1236       H  0.14525774  0.56923899  0.45535404     0.12200
H1237       H  0.13532226  0.56605111  0.32121875     0.12100
H1238       H  0.09109182  0.61629658  0.32296303     0.11900
H1239       H  0.05481527  0.66000403  0.35811455     0.12400
H1240       H  0.09958333  0.61754055  0.45746802     0.14400
C1241       C  0.07891319  0.64293577  0.59088556    -0.05700
C1242       C  0.08792162  0.65091109  0.62694116    -0.05600
C1243       C  0.10900481  0.62668401  0.64760443    -0.23800
C1244       C  0.12205632  0.59417622  0.63245107     0.18500
C1245       C  0.11335895  0.58621519  0.59610986     0.15700
C1246       C  0.09153099  0.61030151  0.57573392    -0.18800
C1247       C  0.12689028  0.55441931  0.58051710    -0.20600
C1248       C  0.14729023  0.52984172  0.60104603    -0.13200
C1249       C  0.15460127  0.53570342  0.63825905     0.03500
C1250       C  0.14319776  0.56937476  0.65308271    -0.25300
H1251       H  0.07855255  0.67601011  0.63919252     0.08600
H1252       H  0.11519024  0.63346450  0.67537434     0.12200
H1253       H  0.08526663  0.60421765  0.54778811     0.12100
H1254       H  0.12103914  0.54806594  0.55256022     0.11900
H1255       H  0.15581977  0.50473865  0.58823242     0.12400
H1256       H  0.14974702  0.57628382  0.68061973     0.14400
C1257       C  0.89312257  0.63916710  0.57343359    -0.05700
C1258       C  0.88143799  0.61248925  0.54885347    -0.05600
C1259       C  0.85833503  0.58357983  0.56012851    -0.23800
C1260       C  0.84714132  0.57999568  0.59657530     0.18500
C1261       C  0.85867205  0.60667823  0.62143220     0.15700
C1262       C  0.88083574  0.63654661  0.60964430    -0.18800
C1263       C  0.84935214  0.60209927  0.65805445    -0.20600
C1264       C  0.82984561  0.57112497  0.67024866    -0.13200
C1265       C  0.81665019  0.54426817  0.64604371     0.03500
C1266       C  0.82584684  0.54953371  0.60879639    -0.25300
H1267       H  0.89023214  0.61406350  0.52068817     0.08600
H1268       H  0.84998729  0.56350757  0.54048418     0.12200
H1269       H  0.88987340  0.65672313  0.62891044     0.12100
H1270       H  0.85866191  0.62170879  0.67774188     0.11900
H1271       H  0.82678405  0.56810822  0.69929039     0.12400
H1272       H  0.81765144  0.52903383  0.58951919     0.14400
C1273       C  0.90783187  0.63792935  0.42000764    -0.05700
C1274       C  0.92068937  0.60225211  0.42757531    -0.05600
C1275       C  0.90243791  0.57147843  0.41550767    -0.23800
C1276       C  0.87107553  0.57534479  0.39497222     0.18500
C1277       C  0.85862882  0.61063873  0.38520857     0.15700
C1278       C  0.87702985  0.64200549  0.39792538    -0.18800
C1279       C  0.82732041  0.61360828  0.36410520    -0.20600
C1280       C  0.80864332  0.58197313  0.35323100    -0.13200
C1281       C  0.82063374  0.54628437  0.36301157     0.03500
C1282       C  0.85165801  0.54406790  0.38512982    -0.25300
H1283       H  0.94459170  0.59773583  0.44384249     0.08600
H1284       H  0.91266513  0.54451695  0.42274225     0.12200
H1285       H  0.86689384  0.66918891  0.39153413     0.12100
H1286       H  0.81697219  0.64035947  0.35638902     0.11900
H1287       H  0.78418957  0.58533801  0.33752569     0.12400
H1288       H  0.86059996  0.51840130  0.39668844     0.14400
C1289       C  0.08038016  0.88333311  0.40760861    -0.05700
C1290       C  0.10848069  0.90265149  0.42426474    -0.05600
C1291       C  0.12843996  0.92933640  0.40479066    -0.23800
C1292       C  0.11988096  0.93778295  0.36861705     0.18500
C1293       C  0.09215935  0.91792837  0.35131909     0.15700
C1294       C  0.07296264  0.89022081  0.37077753    -0.18800
C1295       C  0.08303333  0.92735368  0.31551440    -0.20600
C1296       C  0.09908298  0.95797955  0.29803837    -0.13200
C1297       C  0.12521646  0.97957486  0.31584765     0.03500
C1298       C  0.13691287  0.96743339  0.35043521    -0.25300
H1299       H  0.11488014  0.89710844  0.45244145     0.08600
H1300       H  0.14971068  0.94426582  0.41841133     0.12200
H1301       H  0.05134494  0.87510688  0.35785136     0.12100
H1302       H  0.06192887  0.91232899  0.30175006     0.11900
H1303       H  0.08885624  0.96591069  0.27172751     0.12400
H1304       H  0.15694550  0.98356025  0.36461913     0.14400
C1305       C  0.83328095  0.97926309  0.33775587    -0.05700
C1306       C  0.82101108  0.97963664  0.37431316    -0.05600
C1307       C  0.83636487  0.95648047  0.40106490    -0.23800
C1308       C  0.86456154  0.93214835  0.39218229     0.18500
C1309       C  0.87557435  0.92985409  0.35550765     0.15700
C1310       C  0.85969810  0.95243295  0.32892882    -0.18800
C1311       C  0.90350273  0.90586574  0.34573503    -0.20600
C1312       C  0.92055263  0.88428858  0.37192201    -0.13200
C1313       C  0.91047263  0.88615497  0.40863999     0.03500
C1314       C  0.88222877  0.91021823  0.41888543    -0.25300
H1315       H  0.80114020  0.99970788  0.38262314     0.08600
H1316       H  0.82707078  0.95861479  0.42894929     0.12200
H1317       H  0.87062287  0.95031412  0.30175314     0.12100
H1318       H  0.91228512  0.90377577  0.31766924     0.11900
H1319       H  0.94170184  0.86562909  0.36338904     0.12400
H1320       H  0.87368878  0.91131305  0.44709086     0.14400
C1321       C  0.92306593  0.88512189  0.59873474    -0.05700
C1322       C  0.94873251  0.90717532  0.61611762    -0.05600
C1323       C  0.93770796  0.93279697  0.64171315    -0.23800
C1324       C  0.90069137  0.93753727  0.64960558     0.18500
C1325       C  0.87458959  0.91589882  0.63188486     0.15700
C1326       C  0.88596589  0.88916939  0.60709370    -0.18800
C1327       C  0.83760688  0.92207003  0.63856512    -0.20600
C1328       C  0.82650706  0.95001833  0.66174157    -0.13200
C1329       C  0.85217658  0.97174238  0.68013195     0.03500
C1330       C  0.88942326  0.96439186  0.67406414    -0.25300
H1331       H  0.97747471  0.90407129  0.61030676     0.08600
H1332       H  0.95810511  0.94928342  0.65492463     0.12200
H1333       H  0.86607404  0.87225095  0.59362852     0.12100
H1334       H  0.81716146  0.90610457  0.62483578     0.11900
H1335       H  0.79770108  0.95496193  0.66396448     0.12400
H1336       H  0.90973454  0.98095737  0.68734198     0.14400
C1337       C  0.13201900  0.97007651  0.68028363    -0.05700
C1338       C  0.10795491  0.94507987  0.69822757    -0.05600
C1339       C  0.09150994  0.91636235  0.67958061    -0.23800
C1340       C  0.09858256  0.91162420  0.64252085     0.18500
C1341       C  0.12468280  0.93434340  0.62470418     0.15700
C1342       C  0.14247561  0.96206974  0.64411553    -0.18800
C1343       C  0.13115764  0.93012697  0.58732829    -0.20600
C1344       C  0.11088078  0.90471950  0.56758479    -0.13200
C1345       C  0.08456812  0.88236536  0.58505605     0.03500
C1346       C  0.07934211  0.88519093  0.62278726    -0.25300
H1347       H  0.10120674  0.94755502  0.72667493     0.08600
H1348       H  0.07229439  0.89854215  0.69396078     0.12200
H1349       H  0.16204238  0.97983401  0.63013228     0.12100
H1350       H  0.15114674  0.94721875  0.57316267     0.11900
H1351       H  0.11587430  0.90233097  0.53869241     0.12400
H1352       H  0.05933635  0.86768799  0.63648239     0.14400
C1353       C  0.16161411  0.77142211  0.49114333    -0.05700
C1354       C  0.18366800  0.74396742  0.47670928    -0.05600
C1355       C  0.22128873  0.74878917  0.47533502    -0.23800
C1356       C  0.23693541  0.78141408  0.48778339     0.18500
C1357       C  0.21451659  0.80995015  0.50026841     0.15700
C1358       C  0.17691137  0.80459008  0.50228611    -0.18800
C1359       C  0.23010845  0.84330393  0.51044499    -0.20600
C1360       C  0.26780747  0.84747849  0.51052741    -0.13200
C1361       C  0.29073655  0.81777465  0.50239798     0.03500
C1362       C  0.27463103  0.78566942  0.48845534    -0.25300
H1363       H  0.17181110  0.71859544  0.46729742     0.08600
H1364       H  0.23812726  0.72689974  0.46505340     0.12200
H1365       H  0.15946873  0.82617332  0.51230570     0.12100
H1366       H  0.21319314  0.86599971  0.51869930     0.11900
H1367       H  0.27919931  0.87359179  0.51842581     0.12400
H1368       H  0.29111798  0.76366035  0.47801891     0.14400
C1369       C  0.35118628  0.78429700  0.50248088    -0.05700
C1370       C  0.37935767  0.77701664  0.47739205    -0.05600
C1371       C  0.39643818  0.74297321  0.47730628    -0.23800
C1372       C  0.38670985  0.71568378  0.50293923     0.18500
C1373       C  0.35946788  0.72243036  0.52902849     0.15700
C1374       C  0.34202746  0.75656055  0.52869146    -0.18800
C1375       C  0.35053719  0.69505101  0.55517884    -0.20600
C1376       C  0.36861458  0.66120323  0.55536308    -0.13200
C1377       C  0.39562367  0.65428887  0.52922026     0.03500
C1378       C  0.40443257  0.68194566  0.50318043    -0.25300
H1379       H  0.38950094  0.79767604  0.45848137     0.08600
H1380       H  0.41791749  0.73825855  0.45757132     0.12200
H1381       H  0.32124453  0.76187680  0.54900607     0.12100
H1382       H  0.32963187  0.69983995  0.57547370     0.11900
H1383       H  0.36119891  0.64039256  0.57550917     0.12400
H1384       H  0.42555671  0.67746603  0.48298775     0.14400
C1385       C  0.16421606  0.24896223  0.50734506    -0.05700
C1386       C  0.18366207  0.25751233  0.53878032    -0.05600
C1387       C  0.22059162  0.24899641  0.54170851    -0.23800
C1388       C  0.23889628  0.23108001  0.51353423     0.18500
C1389       C  0.21974201  0.22222071  0.48190524     0.15700
C1390       C  0.18274237  0.23157046  0.47875042    -0.18800
C1391       C  0.23790541  0.20405465  0.45397396    -0.20600
C1392       C  0.27461765  0.19485812  0.45710937    -0.13200
C1393       C  0.29470456  0.20316471  0.48859278     0.03500
C1394       C  0.27600192  0.22202572  0.51646552    -0.25300
H1395       H  0.17022335  0.27073268  0.56131648     0.08600
H1396       H  0.23472487  0.25603336  0.56626747     0.12200
H1397       H  0.16815077  0.22432271  0.45450996     0.12100
H1398       H  0.22377997  0.19724612  0.42932701     0.11900
H1399       H  0.28702113  0.18222406  0.43383284     0.12400
H1400       H  0.29066946  0.23011880  0.54039379     0.14400
C1401       C  0.42744147  0.34973173  0.53089549    -0.05700
C1402       C  0.43620994  0.32230176  0.55647529    -0.05600
C1403       C  0.41959429  0.28741303  0.55498882    -0.23800
C1404       C  0.39432410  0.27939293  0.52768504     0.18500
C1405       C  0.38583524  0.30669983  0.50183079     0.15700
C1406       C  0.40233126  0.34120574  0.50351395    -0.18800
C1407       C  0.36083210  0.29934698  0.47455576    -0.20600
C1408       C  0.34501975  0.26466307  0.47208122    -0.13200
C1409       C  0.35393438  0.23594709  0.49653534     0.03500
C1410       C  0.37770519  0.24457577  0.52550550    -0.25300
H1411       H  0.45541175  0.32791449  0.57772289     0.08600
H1412       H  0.42659143  0.26667265  0.57508673     0.12200
H1413       H  0.39544280  0.36153066  0.48293616     0.12100
H1414       H  0.35380138  0.32036218  0.45473096     0.11900
H1415       H  0.32643829  0.25977912  0.45010220     0.12400
H1416       H  0.38391479  0.22470231  0.54651936     0.14400
C1417       C  0.72646299  0.33594044  0.02063710    -0.05700
C1418       C  0.72899449  0.31535424  0.05309456    -0.05600
C1419       C  0.72118449  0.27768715  0.05359886    -0.23800
C1420       C  0.70996767  0.26036650  0.02185241     0.18500
C1421       C  0.70744980  0.28090023  0.98924451     0.15700
C1422       C  0.71629084  0.31817177  0.98869151    -0.18800
C1423       C  0.69556185  0.26406877  0.95768511    -0.20600
C1424       C  0.68477120  0.22737977  0.95864073    -0.13200
C1425       C  0.68577753  0.20650591  0.99126282     0.03500
C1426       C  0.70056451  0.22307468  0.02224393    -0.25300
H1427       H  0.73680371  0.32835065  0.07805078     0.08600
H1428       H  0.72312844  0.26230284  0.07892218     0.12200
H1429       H  0.71401824  0.33353849  0.96336916     0.12100
H1430       H  0.69423107  0.27940281  0.93226948     0.11900
H1431       H  0.67647773  0.21540586  0.93339690     0.12400
H1432       H  0.70360787  0.20703412  0.04705652     0.14400
C1433       C  0.71348195  0.14623839  0.99533471    -0.05700
C1434       C  0.72519115  0.13000140  0.02824524    -0.05600
C1435       C  0.75919403  0.11402265  0.03094534    -0.23800
C1436       C  0.78307620  0.11447538  0.00122461     0.18500
C1437       C  0.77321405  0.13201589  0.96849710     0.15700
C1438       C  0.73883487  0.14853624  0.96600992    -0.18800
C1439       C  0.79789656  0.13234763  0.93898063    -0.20600
C1440       C  0.83170641  0.11483492  0.94191525    -0.13200
C1441       C  0.84141382  0.09709717  0.97454710     0.03500
C1442       C  0.81679252  0.09756634  0.00409692    -0.25300
H1443       H  0.70868525  0.13019610  0.05268056     0.08600
H1444       H  0.76690378  0.10142175  0.05655014     0.12200
H1445       H  0.73137957  0.16256606  0.94105203     0.12100
H1446       H  0.79089575  0.14573757  0.91356428     0.11900
H1447       H  0.85006703  0.11501905  0.91872209     0.12400
H1448       H  0.82348188  0.08421081  0.02964272     0.14400
C1449       C  0.29089123  0.19839658  0.97916455    -0.05700
C1450       C  0.27409608  0.21167885  0.94724402    -0.05600
C1451       C  0.26366034  0.24854607  0.94345632    -0.23800
C1452       C  0.26827156  0.27294829  0.97210297     0.18500
C1453       C  0.28407868  0.25984416  0.00450093     0.15700
C1454       C  0.29537248  0.22333309  0.00771128    -0.18800
C1455       C  0.28753880  0.28311370  0.03396682    -0.20600
C1456       C  0.27567934  0.31915377  0.03151259    -0.13200
C1457       C  0.26032080  0.33326407  0.99937050     0.03500
C1458       C  0.25678513  0.30988809  0.96946208    -0.25300
H1459       H  0.26828200  0.19309436  0.92541267     0.08600
H1460       H  0.25101612  0.25765639  0.91852192     0.12200
H1461       H  0.30555016  0.21418857  0.03369848     0.12100
H1462       H  0.29945682  0.27343627  0.05908971     0.11900
H1463       H  0.27943067  0.33627880  0.05492456     0.12400
H1464       H  0.24500847  0.32023391  0.94453232     0.14400
C1465       C  0.13954979  0.07016340  0.97355267    -0.05700
C1466       C  0.16207396  0.05971133  0.94462173    -0.05600
C1467       C  0.19647185  0.07559752  0.94009972    -0.23800
C1468       C  0.20890639  0.10156721  0.96484709     0.18500
C1469       C  0.18648927  0.11193879  0.99413204     0.15700
C1470       C  0.15194272  0.09646501  0.99811752    -0.18800
C1471       C  0.19897936  0.13748910  0.01907252    -0.20600
C1472       C  0.23409459  0.15167237  0.01577284    -0.13200
C1473       C  0.25756330  0.14064577  0.98747015     0.03500
C1474       C  0.24357738  0.11692589  0.96096222    -0.25300
H1475       H  0.15297471  0.03961107  0.92535294     0.08600
H1476       H  0.21349708  0.06727665  0.91753445     0.12200
H1477       H  0.13494529  0.10456156  0.02082531     0.12100
H1478       H  0.18183901  0.14602661  0.04147722     0.11900
H1479       H  0.24338769  0.17078944  0.03588594     0.12400
H1480       H  0.25929585  0.10999836  0.93711311     0.14400
C1481       C  0.69034544  0.82005435  0.48071311    -0.05700
C1482       C  0.70441884  0.80034687  0.45076684    -0.05600
C1483       C  0.74061754  0.78998464  0.44856643    -0.23800
C1484       C  0.76410189  0.79795637  0.47671826     0.18500
C1485       C  0.75141421  0.81868231  0.50638102     0.15700
C1486       C  0.71509754  0.83109309  0.50743068    -0.18800
C1487       C  0.77503179  0.82551656  0.53507513    -0.20600
C1488       C  0.81037253  0.81153626  0.53457292    -0.13200
C1489       C  0.82322221  0.79118706  0.50495490     0.03500
C1490       C  0.79990604  0.78489557  0.47587190    -0.25300
H1491       H  0.68661573  0.79136292  0.42944585     0.08600
H1492       H  0.74980088  0.77430022  0.42550368     0.12200
H1493       H  0.70648444  0.84804145  0.52957308     0.12100
H1494       H  0.76602228  0.84118622  0.55819085     0.11900
H1495       H  0.82794772  0.81734945  0.55713913     0.12400
H1496       H  0.80941351  0.76933999  0.45282925     0.14400
C1497       C  0.63048723  0.78599422  0.48764538    -0.05700
C1498       C  0.65111054  0.75517391  0.49887663    -0.05600
C1499       C  0.63607647  0.72010692  0.50047413    -0.23800
C1500       C  0.59968203  0.71458269  0.49196357     0.18500
C1501       C  0.57749184  0.74487611  0.48359584     0.15700
C1502       C  0.59266432  0.78048934  0.48301763    -0.18800
C1503       C  0.54074974  0.73877075  0.47535399    -0.20600
C1504       C  0.52633939  0.70294596  0.47554922    -0.13200
C1505       C  0.54842141  0.67283437  0.48434791     0.03500
C1506       C  0.58515661  0.67907565  0.49229104    -0.25300
H1507       H  0.67925896  0.75754922  0.50651368     0.08600
H1508       H  0.65313051  0.69717893  0.50817161     0.12200
H1509       H  0.57541345  0.80369512  0.47692154     0.12100
H1510       H  0.52320624  0.76163984  0.46878881     0.11900
H1511       H  0.49782674  0.69888721  0.46980241     0.12400
H1512       H  0.60262386  0.65613698  0.49900850     0.14400
C1513       C  0.68168442  0.81059300  0.00300418    -0.05700
C1514       C  0.69441758  0.79931046  0.03749225    -0.05600
C1515       C  0.70787640  0.76383888  0.04368518    -0.23800
C1516       C  0.70994247  0.73872682  0.01532376     0.18500
C1517       C  0.69724977  0.74941232  0.98076105     0.15700
C1518       C  0.68335724  0.78476724  0.97485987    -0.18800
C1519       C  0.69985462  0.72505966  0.95196357    -0.20600
C1520       C  0.71511970  0.69053125  0.95709410    -0.13200
C1521       C  0.72773029  0.67896028  0.99133371     0.03500
C1522       C  0.72497042  0.70342402  0.02056355    -0.25300
H1523       H  0.69526369  0.81862779  0.05947028     0.08600
H1524       H  0.71774517  0.75648809  0.07039433     0.12200
H1525       H  0.67626401  0.79258457  0.94743357     0.12100
H1526       H  0.69015449  0.73275008  0.92526860     0.11900
H1527       H  0.71618324  0.67249607  0.93406501     0.12400
H1528       H  0.73424692  0.69503220  0.04721961     0.14400
C1529       C  0.71321115  0.86919790  0.99724248    -0.05700
C1530       C  0.73906358  0.86218982  0.96982129    -0.05600
C1531       C  0.77339888  0.87820458  0.97061939    -0.23800
C1532       C  0.78297156  0.90070927  0.99940545     0.18500
C1533       C  0.75867475  0.90590922  0.02861791     0.15700
C1534       C  0.72435857  0.88936720  0.02782696    -0.18800
C1535       C  0.76898570  0.92803700  0.05775232    -0.20600
C1536       C  0.80305312  0.94547376  0.05739737    -0.13200
C1537       C  0.82708476  0.94043437  0.02811064     0.03500
C1538       C  0.81666032  0.91802191  0.99929279    -0.25300
H1539       H  0.73214359  0.84514325  0.94710249     0.08600
H1540       H  0.79232599  0.87334223  0.94847829     0.12200
H1541       H  0.70650625  0.89253716  0.05110176     0.12100
H1542       H  0.75062984  0.93209264  0.08053186     0.11900
H1543       H  0.81075355  0.96234062  0.08000029     0.12400
H1544       H  0.83480080  0.91414327  0.97626595     0.14400
C1545       C  0.29184387  0.81363383  0.98650271    -0.05700
C1546       C  0.30329246  0.79321082  0.95604221    -0.05600
C1547       C  0.30008760  0.75504772  0.95559998    -0.23800
C1548       C  0.28410165  0.73590188  0.98487643     0.18500
C1549       C  0.27244556  0.75531033  0.01567599     0.15700
C1550       C  0.27661804  0.79374105  0.01642225    -0.18800
C1551       C  0.25588446  0.73599733  0.04478915    -0.20600
C1552       C  0.25055267  0.69796059  0.04310357    -0.13200
C1553       C  0.26146642  0.67852356  0.01218439     0.03500
C1554       C  0.27862645  0.69776469  0.98329970    -0.25300
H1555       H  0.31342346  0.80623833  0.93139468     0.08600
H1556       H  0.30891876  0.74060517  0.93161139     0.12200
H1557       H  0.26671529  0.80849747  0.03980040     0.12100
H1558       H  0.24669153  0.75034491  0.06868807     0.11900
H1559       H  0.23737859  0.68380698  0.06582290     0.12400
H1560       H  0.28770189  0.68307471  0.95953693     0.14400
C1561       C  0.24924567  0.86543094  0.98989317    -0.05700
C1562       C  0.22462196  0.85466965  0.96295635    -0.05600
C1563       C  0.18766526  0.86271925  0.96593280    -0.23800
C1564       C  0.17400570  0.88009524  0.99681532     0.18500
C1565       C  0.19737867  0.88796763  0.02565988     0.15700
C1566       C  0.23454745  0.88044296  0.02217566    -0.18800
C1567       C  0.18333888  0.90427016  0.05715394    -0.20600
C1568       C  0.14700675  0.91537433  0.05880054    -0.13200
C1569       C  0.12435288  0.91010913  0.02903449     0.03500
C1570       C  0.13763356  0.89090765  0.99881231    -0.25300
H1571       H  0.23436234  0.84093097  0.93892124     0.08600
H1572       H  0.16984177  0.85570817  0.94388230     0.12200
H1573       H  0.25163928  0.88623586  0.04504837     0.12100
H1574       H  0.20087789  0.91005178  0.07977272     0.11900
H1575       H  0.13741760  0.93035036  0.08214142     0.12400
H1576       H  0.12014548  0.88644436  0.97579869     0.14400
C1577       C  0.30920054  0.00136586  0.25924743    -0.05700
C1578       C  0.29257958  0.96682986  0.26524761    -0.05600
C1579       C  0.25672537  0.96400689  0.27736650    -0.23800
C1580       C  0.23625993  0.99560933  0.28315480     0.18500
C1581       C  0.25181810  0.03052203  0.27599168     0.15700
C1582       C  0.28847503  0.03331781  0.26463757    -0.18800
C1583       C  0.23003897  0.06174251  0.27925568    -0.20600
C1584       C  0.19314151  0.05813573  0.28862056    -0.13200
C1585       C  0.17754970  0.02355001  0.29793935     0.03500
C1586       C  0.20005479  0.99241532  0.29485521    -0.25300
H1587       H  0.30752132  0.94166261  0.26138576     0.08600
H1588       H  0.24495607  0.93696133  0.28211588     0.12200
H1589       H  0.30069219  0.06016742  0.25991865     0.12100
H1590       H  0.24110822  0.08880494  0.27305146     0.11900
H1591       H  0.17643678  0.08249200  0.28802556     0.12400
H1592       H  0.18913307  0.96501179  0.29893464     0.14400
C1593       C  0.78379473  0.01684787  0.30125075    -0.05700
C1594       C  0.77432423  0.04451047  0.27556697    -0.05600
C1595       C  0.73906895  0.04769548  0.26198642    -0.23800
C1596       C  0.71179422  0.02259749  0.27255142     0.18500
C1597       C  0.72041768  0.99411516  0.29750639     0.15700
C1598       C  0.75597622  0.99158364  0.31197653    -0.18800
C1599       C  0.69341861  0.96811985  0.30695575    -0.20600
C1600       C  0.65861018  0.97021653  0.29193260    -0.13200
C1601       C  0.64933968  0.99871023  0.26745901     0.03500
C1602       C  0.67626580  0.02515091  0.25815558    -0.25300
H1603       H  0.79486333  0.06368073  0.26548786     0.08600
H1604       H  0.73338764  0.06945534  0.24249670     0.12200
H1605       H  0.76205973  0.96898921  0.33027361     0.12100
H1606       H  0.69923171  0.94595429  0.32594325     0.11900
H1607       H  0.63849800  0.94977474  0.30019783     0.12400
H1608       H  0.66977267  0.04729822  0.23936239     0.14400
C1609       C  0.39059423  0.91051013  0.35778741    -0.05700
C1610       C  0.37333235  0.87753141  0.34801284    -0.05600
C1611       C  0.35586377  0.85517350  0.37417021    -0.23800
C1612       C  0.35512761  0.86542606  0.41060827     0.18500
C1613       C  0.37052052  0.89949087  0.42026850     0.15700
C1614       C  0.38823895  0.92172328  0.39397646    -0.18800
C1615       C  0.36823422  0.91065460  0.45619562    -0.20600
C1616       C  0.35376866  0.88705281  0.48279990    -0.13200
C1617       C  0.34308771  0.85057601  0.47471235     0.03500
C1618       C  0.34058603  0.84165892  0.43770633    -0.25300
H1619       H  0.37426009  0.86835225  0.32022976     0.08600
H1620       H  0.34380851  0.82942056  0.36603541     0.12200
H1621       H  0.40061269  0.94745297  0.40181915     0.12100
H1622       H  0.37813219  0.93747845  0.46389323     0.11900
H1623       H  0.35178920  0.89766704  0.50994844     0.12400
H1624       H  0.32960445  0.81517480  0.43029934     0.14400
C1625       C  0.55954029  0.90226402  0.35244057    -0.05700
C1626       C  0.55181527  0.86447728  0.35186670    -0.05600
C1627       C  0.57164752  0.83995861  0.37316778    -0.23800
C1628       C  0.59961376  0.85304963  0.39501337     0.18500
C1629       C  0.60867409  0.89088295  0.39403174     0.15700
C1630       C  0.58850348  0.91530415  0.37276792    -0.18800
C1631       C  0.63722122  0.90375359  0.41503038    -0.20600
C1632       C  0.65308784  0.88046266  0.44052915    -0.13200
C1633       C  0.64022436  0.84403751  0.44580758     0.03500
C1634       C  0.61704841  0.82941945  0.41947476    -0.25300
H1635       H  0.53035863  0.85404176  0.33492685     0.08600
H1636       H  0.56458943  0.81101693  0.37320391     0.12200
H1637       H  0.59543950  0.94430309  0.37172450     0.12100
H1638       H  0.64549034  0.93236211  0.41360287     0.11900
H1639       H  0.67254266  0.89200945  0.45904212     0.12400
H1640       H  0.61015636  0.80055368  0.41953304     0.14400
C1641       C  0.35197173  0.17922573  0.45545129    -0.05700
C1642       C  0.37739291  0.19703439  0.43174557    -0.05600
C1643       C  0.39251469  0.17913780  0.40200363    -0.23800
C1644       C  0.38425105  0.14232209  0.39569585     0.18500
C1645       C  0.35972754  0.12341559  0.41924344     0.15700
C1646       C  0.34323771  0.14206069  0.44823708    -0.18800
C1647       C  0.35307698  0.08584670  0.41403473    -0.20600
C1648       C  0.37105605  0.06722630  0.38616313    -0.13200
C1649       C  0.39500309  0.08611150  0.36234277     0.03500
C1650       C  0.40113168  0.12378920  0.36694127    -0.25300
H1651       H  0.38702155  0.22456601  0.43611501     0.08600
H1652       H  0.41181880  0.19385595  0.38459665     0.12200
H1653       H  0.32449824  0.12730745  0.46623878     0.12100
H1654       H  0.33458187  0.07071414  0.43195493     0.11900
H1655       H  0.36610792  0.03810473  0.38300202     0.12400
H1656       H  0.42004324  0.13830271  0.34890982     0.14400
C1657       C  0.48565548  0.31386726  0.21563203    -0.05700
C1658       C  0.47867053  0.30036153  0.25152480    -0.05600
C1659       C  0.47651488  0.26302231  0.25970336    -0.23800
C1660       C  0.47991446  0.23736802  0.23238782     0.18500
C1661       C  0.48459060  0.24948651  0.19596051     0.15700
C1662       C  0.48671767  0.28755827  0.18773244    -0.18800
C1663       C  0.48740701  0.22313482  0.16865273    -0.20600
C1664       C  0.48630776  0.18548410  0.17765752    -0.13200
C1665       C  0.48200432  0.17367590  0.21399489     0.03500
C1666       C  0.47845135  0.19972376  0.24114188    -0.25300
H1667       H  0.47402342  0.31822821  0.27412083     0.08600
H1668       H  0.47190110  0.25421466  0.28764698     0.12200
H1669       H  0.49005278  0.29677949  0.15976250     0.12100
H1670       H  0.49085204  0.23160017  0.14048250     0.11900
H1671       H  0.48888257  0.16555035  0.15631104     0.12400
H1672       H  0.47496818  0.19060109  0.26915668     0.14400
C1673       C  0.47638201  0.83076485  0.21978502    -0.05700
C1674       C  0.44738939  0.81666138  0.19970800    -0.05600
C1675       C  0.44786581  0.78059616  0.18753505    -0.23800
C1676       C  0.47650819  0.75731576  0.19684002     0.18500
C1677       C  0.50486424  0.77072755  0.21859759     0.15700
C1678       C  0.50515545  0.80756587  0.22916304    -0.18800
C1679       C  0.53220485  0.74696431  0.22984172    -0.20600
C1680       C  0.53049284  0.70994831  0.22119913    -0.13200
C1681       C  0.50209209  0.69559348  0.19989403     0.03500
C1682       C  0.47647699  0.72054935  0.18586868    -0.25300
H1683       H  0.42461977  0.83383433  0.19274980     0.08600
H1684       H  0.42547070  0.77072592  0.17148602     0.12200
H1685       H  0.52740370  0.81801124  0.24510285     0.12100
H1686       H  0.55413305  0.75663654  0.24662898     0.11900
H1687       H  0.55084290  0.69208765  0.23263377     0.12400
H1688       H  0.45564515  0.71163925  0.16757802     0.14400
C1689       C  0.57526254  0.07980069  0.11640104    -0.05700
C1690       C  0.59113321  0.05470754  0.09265812    -0.05600
C1691       C  0.61377637  0.06686448  0.06438274    -0.23800
C1692       C  0.62040090  0.10445715  0.05911347     0.18500
C1693       C  0.60428218  0.13008489  0.08261179     0.15700
C1694       C  0.58207952  0.11753820  0.11164314    -0.18800
C1695       C  0.61011424  0.16768786  0.07611425    -0.20600
C1696       C  0.63248302  0.17973251  0.04724660    -0.13200
C1697       C  0.65070118  0.15431945  0.02496361     0.03500
C1698       C  0.64290502  0.11665477  0.03058730    -0.25300
H1699       H  0.58617857  0.02554169  0.09628947     0.08600
H1700       H  0.62593648  0.04689088  0.04654975     0.12200
H1701       H  0.56947949  0.13691130  0.12984550     0.12100
H1702       H  0.59701761  0.18782092  0.09308339     0.11900
H1703       H  0.63467802  0.20897489  0.04231330     0.12400
H1704       H  0.65515309  0.09666129  0.01280929     0.14400
C1705       C  0.56159392  0.91386010  0.11835831    -0.05700
C1706       C  0.56414493  0.87562198  0.12286201    -0.05600
C1707       C  0.58466634  0.85512210  0.09849537    -0.23800
C1708       C  0.60403502  0.87288923  0.07024978     0.18500
C1709       C  0.60126353  0.91147231  0.06579985     0.15700
C1710       C  0.57932236  0.93156032  0.08926885    -0.18800
C1711       C  0.62146901  0.92965631  0.03882339    -0.20600
C1712       C  0.64503980  0.91005917  0.01707962    -0.13200
C1713       C  0.64874265  0.87143415  0.02099432     0.03500
C1714       C  0.62688545  0.85294536  0.04714545    -0.25300
H1715       H  0.55042523  0.86171867  0.14542811     0.08600
H1716       H  0.58640029  0.82564805  0.10249103     0.12200
H1717       H  0.57758195  0.96113467  0.08612508     0.12100
H1718       H  0.61986343  0.95920614  0.03517425     0.11900
H1719       H  0.66129545  0.92553510  0.99747224     0.12400
H1720       H  0.62760447  0.82335884  0.04992098     0.14400
C1721       C  0.39508574  0.91623674  0.11724887    -0.05700
C1722       C  0.39232975  0.87782994  0.12004736    -0.05600
C1723       C  0.37238537  0.85795298  0.09488445    -0.23800
C1724       C  0.35375952  0.87633858  0.06713092     0.18500
C1725       C  0.35590224  0.91511863  0.06462342     0.15700
C1726       C  0.37735847  0.93473581  0.08900232    -0.18800
C1727       C  0.33578556  0.93377895  0.03843166    -0.20600
C1728       C  0.31368452  0.91436190  0.01506184    -0.13200
C1729       C  0.31222901  0.87544194  0.01574796     0.03500
C1730       C  0.33287777  0.85666942  0.04212709    -0.25300
H1731       H  0.40592221  0.86319776  0.14159292     0.08600
H1732       H  0.37096542  0.82830181  0.09757171     0.12200
H1733       H  0.37897688  0.96445705  0.08703365     0.12100
H1734       H  0.33670358  0.96349114  0.03631348     0.11900
H1735       H  0.29811255  0.92987058  0.99541035     0.12400
H1736       H  0.33319118  0.82702344  0.04340672     0.14400
C1737       C  0.31852258  0.14791591  0.01996574    -0.05700
C1738       C  0.35400107  0.16271064  0.02229785    -0.05600
C1739       C  0.37823951  0.15006133  0.04831735    -0.23800
C1740       C  0.36802256  0.12170476  0.07240765     0.18500
C1741       C  0.33244498  0.10692463  0.07125514     0.15700
C1742       C  0.30792788  0.12023072  0.04545529    -0.18800
C1743       C  0.32237094  0.07811273  0.09514981    -0.20600
C1744       C  0.34729373  0.06436484  0.12008181    -0.13200
C1745       C  0.38266096  0.07886664  0.12105495     0.03500
C1746       C  0.39305317  0.10736858  0.09716103    -0.25300
H1747       H  0.36346895  0.18316655  0.00262927     0.08600
H1748       H  0.40542481  0.16163528  0.04876488     0.12200
H1749       H  0.28176197  0.10675208  0.04380099     0.12100
H1750       H  0.29532251  0.06620802  0.09451540     0.11900
H1751       H  0.33912063  0.04219075  0.13847705     0.12400
H1752       H  0.42042895  0.11848117  0.09811233     0.14400
C1753       C  0.68666845  0.20592637  0.47464907    -0.05700
C1754       C  0.70106292  0.22770892  0.44568612    -0.05600
C1755       C  0.73729718  0.23971245  0.44515485    -0.23800
C1756       C  0.76037033  0.23100680  0.47394331     0.18500
C1757       C  0.74661228  0.20983261  0.50355421     0.15700
C1758       C  0.71023170  0.19741948  0.50375251    -0.18800
C1759       C  0.76937457  0.20184818  0.53285597    -0.20600
C1760       C  0.80536940  0.21451893  0.53273197    -0.13200
C1761       C  0.81974299  0.23516952  0.50313697     0.03500
C1762       C  0.79686929  0.24329169  0.47372704    -0.25300
H1763       H  0.68383918  0.23581128  0.42337204     0.08600
H1764       H  0.74713677  0.25627576  0.42233872     0.12200
H1765       H  0.70040728  0.18224656  0.52740193     0.12100
H1766       H  0.75938446  0.18566699  0.55588932     0.11900
H1767       H  0.82229881  0.20729303  0.55556268     0.12400
H1768       H  0.80741667  0.25920880  0.45076133     0.14400
C1769       C  0.55696694  0.09382422  0.35958938    -0.05700
C1770       C  0.53338440  0.10699478  0.38650405    -0.05600
C1771       C  0.54621606  0.13011343  0.41328134    -0.23800
C1772       C  0.58303329  0.14002891  0.41394794     0.18500
C1773       C  0.60713918  0.12709488  0.38705756     0.15700
C1774       C  0.59387237  0.10424765  0.35965605    -0.18800
C1775       C  0.64402602  0.13691259  0.38845037    -0.20600
C1776       C  0.65687438  0.15941867  0.41610045    -0.13200
C1777       C  0.63294158  0.17329280  0.44281756     0.03500
C1778       C  0.59600391  0.16242574  0.44142852    -0.25300
H1779       H  0.50476237  0.09980881  0.38644584     0.08600
H1780       H  0.52735059  0.14009265  0.43359909     0.12200
H1781       H  0.61215985  0.09415831  0.33885640     0.12100
H1782       H  0.66309325  0.12674847  0.36842112     0.11900
H1783       H  0.68571373  0.16486824  0.41669053     0.12400
H1784       H  0.57718479  0.17181916  0.46210930     0.14400
C1785       C  0.62573063  0.23486643  0.47495068    -0.05700
C1786       C  0.60347875  0.24640863  0.44569377    -0.05600
C1787       C  0.58852241  0.28148314  0.44388880    -0.23800
C1788       C  0.59640643  0.30732264  0.47017013     0.18500
C1789       C  0.61959477  0.29748551  0.49896384     0.15700
C1790       C  0.63382953  0.26154058  0.50131933    -0.18800
C1791       C  0.62796151  0.32384385  0.52495229    -0.20600
C1792       C  0.61224933  0.35879703  0.52319138    -0.13200
C1793       C  0.58838467  0.36848423  0.49505712     0.03500
C1794       C  0.58119055  0.34274122  0.46816436    -0.25300
H1795       H  0.59803455  0.22924743  0.42285177     0.08600
H1796       H  0.57130652  0.28866429  0.42124063     0.12200
H1797       H  0.65183601  0.25439753  0.52334922     0.12100
H1798       H  0.64589632  0.31715263  0.54716000     0.11900
H1799       H  0.61795609  0.37808563  0.54447351     0.12400
H1800       H  0.56231387  0.34961691  0.44678585     0.14400
C1801       C  0.18871355  0.99984853  0.70147616    -0.05700
C1802       C  0.20142475  0.96757008  0.71916156    -0.05600
C1803       C  0.23828212  0.96264672  0.72688113    -0.23800
C1804       C  0.26374010  0.99026453  0.71811899     0.18500
C1805       C  0.25191799  0.02217585  0.69954277     0.15700
C1806       C  0.21518153  0.02591250  0.68978781    -0.18800
C1807       C  0.27686223  0.05054115  0.69184896    -0.20600
C1808       C  0.31296363  0.04761713  0.70268660    -0.13200
C1809       C  0.32553784  0.01583934  0.72069660     0.03500
C1810       C  0.30062496  0.98689050  0.72799188    -0.25300
H1811       H  0.18236772  0.94651210  0.72834876     0.08600
H1812       H  0.24660390  0.93779119  0.74096325     0.12200
H1813       H  0.20771917  0.04985345  0.67408367     0.12100
H1814       H  0.26832676  0.07537803  0.67787519     0.11900
H1815       H  0.33131567  0.07023186  0.69622913     0.12400
H1816       H  0.30971033  0.96216890  0.74182730     0.14400
C1817       C  0.79992056  0.01152005  0.70516596    -0.05700
C1818       C  0.78265797  0.04438025  0.69406847    -0.05600
C1819       C  0.74577449  0.04994500  0.70101373    -0.23800
C1820       C  0.72522885  0.02351501  0.72024391     0.18500
C1821       C  0.74204164  0.99116983  0.73294906     0.15700
C1822       C  0.77878523  0.98517888  0.72493014    -0.18800
C1823       C  0.72173276  0.96519708  0.75326466    -0.20600
C1824       C  0.68450515  0.97015460  0.75879816    -0.13200
C1825       C  0.66712829  0.00131763  0.74439228     0.03500
C1826       C  0.68796427  0.02859400  0.72632277    -0.25300
H1827       H  0.79736474  0.06678513  0.68107068     0.08600
H1828       H  0.73340879  0.07528028  0.69172587     0.12200
H1829       H  0.79147341  0.96025063  0.73488992     0.12100
H1830       H  0.73439840  0.94058773  0.76396342     0.11900
H1831       H  0.66910005  0.94911679  0.77349718     0.12400
H1832       H  0.67490499  0.05287536  0.71532929     0.14400
C1833       C  0.42474445  0.09646907  0.61163688    -0.05700
C1834       C  0.44721320  0.10528320  0.58161847    -0.05600
C1835       C  0.43400797  0.12597251  0.55251874    -0.23800
C1836       C  0.39776384  0.13747125  0.55244447     0.18500
C1837       C  0.37438276  0.12763140  0.58167321     0.15700
C1838       C  0.38819629  0.10776189  0.61160014    -0.18800
C1839       C  0.33767580  0.13766231  0.58018335    -0.20600
C1840       C  0.32452262  0.15813549  0.55056947    -0.13200
C1841       C  0.34820529  0.17078028  0.52246547     0.03500
C1842       C  0.38482525  0.15907289  0.52369052    -0.25300
H1843       H  0.47539201  0.09686446  0.58107823     0.08600
H1844       H  0.45219200  0.13302216  0.53006533     0.12200
H1845       H  0.37053456  0.10057858  0.63443857     0.12100
H1846       H  0.31902808  0.12952501  0.60189679     0.11900
H1847       H  0.29591855  0.16421331  0.55054518     0.12400
H1848       H  0.40375587  0.16782205  0.50243227     0.14400
C1849       C  0.63503498  0.17147995  0.50919906    -0.05700
C1850       C  0.64761080  0.13472295  0.50962592    -0.05600
C1851       C  0.63525010  0.10882144  0.53545709    -0.23800
C1852       C  0.61128849  0.11903829  0.56317077     0.18500
C1853       C  0.60010725  0.15606718  0.56491628     0.15700
C1854       C  0.61111177  0.18170997  0.53758136    -0.18800
C1855       C  0.57782195  0.16678165  0.59396687    -0.20600
C1856       C  0.56660679  0.14118847  0.62069010    -0.13200
C1857       C  0.57627902  0.10403334  0.61840142     0.03500
C1858       C  0.59853431  0.09298713  0.58933169    -0.25300
H1859       H  0.66616185  0.12558723  0.48865271     0.08600
H1860       H  0.64460451  0.08074826  0.53377099     0.12200
H1861       H  0.60039202  0.20920046  0.53851025     0.12100
H1862       H  0.56918346  0.19504173  0.59615329     0.11900
H1863       H  0.54947121  0.15027267  0.64286309     0.12400
H1864       H  0.60643663  0.06444850  0.58752728     0.14400
C1865       C  0.58401374  0.91075992  0.62836623    -0.05700
C1866       C  0.61162817  0.88637301  0.63925126    -0.05600
C1867       C  0.62996736  0.86461948  0.61377037    -0.23800
C1868       C  0.62111300  0.86674052  0.57681506     0.18500
C1869       C  0.59334448  0.89104420  0.56604575     0.15700
C1870       C  0.57516262  0.91269004  0.59151829    -0.18800
C1871       C  0.58319754  0.89280838  0.52995759    -0.20600
C1872       C  0.60094056  0.87181222  0.50436909    -0.13200
C1873       C  0.63095805  0.84888281  0.51308683     0.03500
C1874       C  0.63898122  0.84492124  0.55051139    -0.25300
H1875       H  0.61918482  0.88415924  0.66749685     0.08600
H1876       H  0.65109060  0.84624680  0.62297714     0.12200
H1877       H  0.55370752  0.93083076  0.58253548     0.12100
H1878       H  0.56094189  0.91014509  0.52140860     0.11900
H1879       H  0.58968520  0.87333378  0.47748454     0.12400
H1880       H  0.65852121  0.82468417  0.55932522     0.14400
C1881       C  0.34562578  0.83619936  0.54195715    -0.05700
C1882       C  0.32321110  0.84363571  0.57228986    -0.05600
C1883       C  0.33706442  0.86306827  0.60160626    -0.23800
C1884       C  0.37339679  0.87506574  0.60107966     0.18500
C1885       C  0.39663821  0.86457657  0.57240274     0.15700
C1886       C  0.38314124  0.84355247  0.54452150    -0.18800
C1887       C  0.43257777  0.87717635  0.57056939    -0.20600
C1888       C  0.44530245  0.90102576  0.59651613    -0.13200
C1889       C  0.42259924  0.91175026  0.62522075     0.03500
C1890       C  0.38682100  0.89809777  0.62797350    -0.25300
H1891       H  0.29499335  0.83535573  0.57338259     0.08600
H1892       H  0.31906738  0.86990525  0.62394763     0.12200
H1893       H  0.40119003  0.83656318  0.52223120     0.12100
H1894       H  0.45053158  0.86944507  0.54848652     0.11900
H1895       H  0.47312764  0.91082688  0.59435916     0.12400
H1896       H  0.36925167  0.90640724  0.65015638     0.14400
C1897       C  0.49235628  0.31184745  0.80735731    -0.05700
C1898       C  0.45890376  0.29269713  0.81264553    -0.05600
C1899       C  0.45385739  0.25682070  0.80063387    -0.23800
C1900       C  0.48179348  0.23855567  0.78249718     0.18500
C1901       C  0.51519220  0.25703910  0.77608816     0.15700
C1902       C  0.51998790  0.29357214  0.78777977    -0.18800
C1903       C  0.54330669  0.23850821  0.75821485    -0.20600
C1904       C  0.53866306  0.20198453  0.74759696    -0.13200
C1905       C  0.50556692  0.18309168  0.75392326     0.03500
C1906       C  0.47694813  0.20201876  0.77099197    -0.25300
H1907       H  0.43560342  0.30547214  0.82511086     0.08600
H1908       H  0.42781775  0.24339975  0.80541672     0.12200
H1909       H  0.54533163  0.30786362  0.78174726     0.12100
H1910       H  0.56920666  0.25203494  0.75302105     0.11900
H1911       H  0.56130233  0.18831539  0.73468036     0.12400
H1912       H  0.45140522  0.18791742  0.77660048     0.14400
C1913       C  0.50377534  0.70170392  0.81042325    -0.05700
C1914       C  0.53784425  0.71672093  0.79961132    -0.05600
C1915       C  0.54191867  0.75377625  0.78971826    -0.23800
C1916       C  0.51182600  0.77705422  0.78904431     0.18500
C1917       C  0.47750526  0.76307098  0.80014065     0.15700
C1918       C  0.47372460  0.72590668  0.81120511    -0.18800
C1919       C  0.44719252  0.78616620  0.79853925    -0.20600
C1920       C  0.45073728  0.82240217  0.78549142    -0.13200
C1921       C  0.48474879  0.83671652  0.77393467     0.03500
C1922       C  0.51533938  0.81374000  0.77637874    -0.25300
H1923       H  0.56131285  0.69911613  0.79724647     0.08600
H1924       H  0.56847126  0.76384752  0.78109740     0.12200
H1925       H  0.44676737  0.71566956  0.81788170     0.12100
H1926       H  0.42057434  0.77607850  0.80696008     0.11900
H1927       H  0.42668118  0.83933237  0.78471960     0.12400
H1928       H  0.54182101  0.82417001  0.76793051     0.14400
C1929       C  0.31918459  0.13722448  0.95568784    -0.05700
C1930       C  0.32467912  0.09884227  0.95967074    -0.05600
C1931       C  0.34700647  0.07979745  0.93605283    -0.23800
C1932       C  0.36441470  0.09834765  0.90733329     0.18500
C1933       C  0.35900928  0.13651460  0.90221148     0.15700
C1934       C  0.33718761  0.15586208  0.92678662    -0.18800
C1935       C  0.37571597  0.15472710  0.87257740    -0.20600
C1936       C  0.39744570  0.13530311  0.84835873    -0.13200
C1937       C  0.40361087  0.09765726  0.85399563     0.03500
C1938       C  0.38715832  0.07927923  0.88360090    -0.25300
H1939       H  0.31153448  0.08341498  0.98156989     0.08600
H1940       H  0.35061215  0.05052759  0.94029597     0.12200
H1941       H  0.33519340  0.18530312  0.92351954     0.12100
H1942       H  0.37176556  0.18387984  0.86796781     0.11900
H1943       H  0.40991043  0.14978306  0.82543914     0.12400
H1944       H  0.39140114  0.05004198  0.88761344     0.14400
C1945       C  0.30803269  0.87241942  0.95020343    -0.05700
C1946       C  0.29014163  0.89626016  0.92565919    -0.05600
C1947       C  0.30916231  0.91374465  0.89708417    -0.23800
C1948       C  0.34676436  0.90933441  0.89320918     0.18500
C1949       C  0.36526011  0.88602694  0.91760549     0.15700
C1950       C  0.34582883  0.86726415  0.94506117    -0.18800
C1951       C  0.40317270  0.88297276  0.91512282    -0.20600
C1952       C  0.42268750  0.90349459  0.88904809    -0.13200
C1953       C  0.40444318  0.92640703  0.86447008     0.03500
C1954       C  0.36643390  0.92882995  0.86619942    -0.25300
H1955       H  0.26191174  0.90325121  0.92904397     0.08600
H1956       H  0.29467851  0.93207307  0.87895944     0.12200
H1957       H  0.36042657  0.84983071  0.96397158     0.12100
H1958       H  0.41776236  0.86528474  0.93376981     0.11900
H1959       H  0.45199506  0.90108434  0.88765382     0.12400
H1960       H  0.35241701  0.94668365  0.84722264     0.14400
C1961       C  0.65687517  0.85927561  0.95765188    -0.05700
C1962       C  0.62372143  0.84113070  0.95054993    -0.05600
C1963       C  0.60019531  0.85414542  0.92399503    -0.23800
C1964       C  0.60806923  0.88691471  0.90515076     0.18500
C1965       C  0.64140393  0.90519652  0.91098513     0.15700
C1966       C  0.66607638  0.89059778  0.93598879    -0.18800
C1967       C  0.64858216  0.93895880  0.89326424    -0.20600
C1968       C  0.62276320  0.95447037  0.87026093    -0.13200
C1969       C  0.58957987  0.93643833  0.86465016     0.03500
C1970       C  0.58253383  0.90243236  0.88161170    -0.25300
H1971       H  0.61488392  0.81799035  0.96734762     0.08600
H1972       H  0.57468161  0.83986827  0.91994639     0.12200
H1973       H  0.69038492  0.90635782  0.94130361     0.12100
H1974       H  0.67393223  0.95350000  0.89746134     0.11900
H1975       H  0.62889275  0.98021424  0.85631135     0.12400
H1976       H  0.55715058  0.88823649  0.87654759     0.14400
C1977       C  0.58991863  0.08476498  0.85994072    -0.05700
C1978       C  0.62425170  0.06886145  0.86351778    -0.05600
C1979       C  0.64834608  0.08156987  0.88938755    -0.23800
C1980       C  0.63876764  0.11117410  0.91123148     0.18500
C1981       C  0.60460789  0.12812528  0.90680537     0.15700
C1982       C  0.58000042  0.11434098  0.88157409    -0.18800
C1983       C  0.59557964  0.15832328  0.92786693    -0.20600
C1984       C  0.61978529  0.17110083  0.95361813    -0.13200
C1985       C  0.65358430  0.15382471  0.95944770     0.03500
C1986       C  0.66260222  0.12356451  0.93778394    -0.25300
H1987       H  0.63221747  0.04630877  0.84645261     0.08600
H1988       H  0.67450226  0.06840802  0.89215500     0.12200
H1989       H  0.55352554  0.12678967  0.87836405     0.12100
H1990       H  0.56961673  0.17179760  0.92477297     0.11900
H1991       H  0.61161464  0.19399582  0.97014317     0.12400
H1992       H  0.68718045  0.10823048  0.94232821     0.14400
loop_ 
_geom_bond_atom_site_label_1 
_geom_bond_atom_site_label_2 
_geom_bond_distance 
_geom_bond_site_symmetry_2 
_ccdc_geom_bond_type 
O1           C12   1.290       .  A
O1          Eu37   2.453       .  S
O2           C13   1.294       .  A
O2          Eu36   2.482       .  S
O3           C14   1.292       .  A
O3           Eu9   2.456       .  S
O4           C15   1.293       .  A
O4           Eu9   2.469       .  S
O5           C15   1.298       .  A
O5          Eu39   2.501       .  S
O6           C14   1.291   1_565  A
O6          Eu38   2.453       .  S
O7           C13   1.292       .  A
O7           Eu9   2.469       .  S
O8           C12   1.288       .  A
O8           Eu9   2.445       .  S
Eu9          O19   2.357       .  S
Eu9          O11   2.343       .  S
Eu9          O10   2.338       .  S
Eu9          O17   2.366       .  S
O10         Eu39   2.351       .  S
O10         Eu36   2.356       .  S
O11         Eu37   2.337       .  S
O11         Eu38   2.342   1_545  S
C12        C1977   1.458       .  S
C13        C1857   1.485       .  S
C14        C1825   1.475       .  S
C15        C1905   1.499       .  S
H16          O17   0.966       .  S
O17         Eu38   2.373   1_545  S
O17         Eu36   2.339       .  S
H18          O19   0.965       .  S
O19         Eu37   2.353       .  S
O19         Eu39   2.360       .  S
O20          C43   1.291       .  A
O20         Eu36   2.445   1_565  S
O21          C44   1.291       .  A
O21         Eu37   2.462   1_565  S
O22          C45   1.290       .  A
O22         Eu38   2.454       .  S
O23          C46   1.293       .  A
O23         Eu39   2.471       .  S
O24          C47   1.288       .  A
O24         Eu39   2.440       .  S
O25          C48   1.284       .  A
O25         Eu38   2.425       .  S
O26          C49   1.294       .  A
O26         Eu40   2.473       .  S
O27          C50   1.294   1_565  A
O27         Eu40   2.480       .  S
O28          C49   1.297       .  A
O28         Eu38   2.495       .  S
O29          C50   1.295       .  A
O29         Eu39   2.474       .  S
O30          C45   1.297       .  A
O30         Eu36   2.486   1_565  S
O31          C48   1.294       .  A
O31         Eu37   2.482   1_565  S
O32          C47   1.292       .  A
O32         Eu37   2.461       .  S
O33          C46   1.293       .  A
O33         Eu36   2.463       .  S
O34          C43   1.288       .  A
O34         Eu40   2.439       .  S
O35          C44   1.289       .  A
O35         Eu40   2.450       .  S
Eu36         O54   2.360       .  S
Eu36         O42   2.363   1_545  S
Eu37         O41   2.363       .  S
Eu37         O52   2.339   1_545  S
Eu38         O52   2.355       .  S
Eu38         O42   2.342       .  S
Eu39         O41   2.364       .  S
Eu39         O54   2.358       .  S
Eu40         O41   2.351   1_565  S
Eu40         O52   2.358       .  S
Eu40         O54   2.361   1_565  S
Eu40         O42   2.365       .  S
C43        C1889   1.463       .  S
C44        C1953   1.466       .  S
C45        C1865   1.494       .  S
C46        C1833   1.479       .  S
C47        C1937   1.466       .  S
C48        C1969   1.462       .  S
C49        C1921   1.499       .  S
C50        C1809   1.495       .  S
H51          O52   0.965       .  S
H53          O54   0.965       .  S
C55        C1753   1.561       .  S
C55        C1777   1.560       .  S
C55        C1785   1.571       .  S
C55        C1849   1.566       .  S
O56          C67   1.294       .  A
O56         Eu92   2.467   1_545  S
O57          C68   1.290       .  A
O57         Eu91   2.447       .  S
O58          C69   1.297       .  A
O58         Eu64   2.495       .  S
O59          C70   1.292       .  A
O59         Eu64   2.472       .  S
O60          C70   1.292       .  A
O60         Eu94   2.467       .  S
O61          C69   1.296   1_565  A
O61         Eu93   2.484       .  S
O62          C68   1.292       .  A
O62         Eu64   2.464       .  S
O63          C67   1.292       .  A
O63         Eu64   2.463       .  S
Eu64         O74   2.371       .  S
Eu64         O66   2.354       .  S
Eu64         O65   2.361       .  S
Eu64         O72   2.361       .  S
O65         Eu94   2.357       .  S
O65         Eu91   2.351       .  S
O66         Eu92   2.349   1_545  S
O66         Eu93   2.342   1_545  S
C67        C1769   1.474       .  S
C68        C1689   1.464       .  S
C69        C1601   1.504   1_545  S
C70        C1665   1.474       .  S
H71          O72   0.966       .  S
O72         Eu93   2.346   1_545  S
O72         Eu91   2.376       .  S
H73          O74   0.964       .  S
O74         Eu92   2.380   1_545  S
O74         Eu94   2.357       .  S
O75          C98   1.292       .  A
O75         Eu91   2.468   1_565  S
O76          C99   1.296       .  A
O76         Eu92   2.479       .  S
O77         C100   1.285       .  A
O77         Eu93   2.423       .  S
O78         C101   1.289       .  A
O78         Eu94   2.449       .  S
O79         C102   1.293       .  A
O79         Eu94   2.473       .  S
O80         C103   1.280       .  A
O80         Eu93   2.396       .  S
O81         C104   1.288       .  A
O81         Eu95   2.441       .  S
O82         C105   1.291   1_565  A
O82         Eu95   2.447       .  S
O83         C104   1.292       .  A
O83         Eu93   2.464       .  S
O84         C105   1.292       .  A
O84         Eu94   2.465       .  S
O85         C100   1.291       .  A
O85         Eu91   2.460   1_565  S
O86         C103   1.297       .  A
O86         Eu92   2.496       .  S
O87         C102   1.292       .  A
O87         Eu92   2.467   1_545  S
O88         C101   1.292       .  A
O88         Eu91   2.466       .  S
O89          C98   1.291       .  A
O89         Eu95   2.459       .  S
O90          C99   1.289       .  A
O90         Eu95   2.440       .  S
Eu91        O109   2.361       .  S
Eu91         O97   2.334   1_545  S
Eu92         O96   2.343   1_565  S
Eu92        O107   2.358       .  S
Eu93        O107   2.350       .  S
Eu93         O97   2.338       .  S
Eu94         O96   2.344       .  S
Eu94        O109   2.360       .  S
Eu95         O96   2.343   1_565  S
Eu95        O107   2.345       .  S
Eu95        O109   2.335   1_565  S
Eu95         O97   2.334       .  S
C98        C1721   1.475       .  S
C99        C1609   1.483       .  S
C100       C1705   1.458       .  S
C101       C1745   1.461       .  S
C102       C1649   1.476       .  S
C103       C1625   1.456       .  S
C104       C1673   1.477       .  S
C105       C1577   1.486       .  S
H106        O107   0.964       .  S
H108        O109   0.965       .  S
C110       C1545   1.557       .  S
C110       C1561   1.553       .  S
C110       C1729   1.553   1_556  S
C110       C1945   1.556       .  S
C111       C1513   1.554   1_556  S
C111       C1529   1.539       .  S
C111       C1713   1.543   1_556  S
C111       C1961   1.551       .  S
C112       C1481   1.558       .  S
C112       C1497   1.557       .  S
C112       C1633   1.551       .  S
C112       C1873   1.572       .  S
C113       C1449   1.554       .  S
C113       C1473   1.542       .  S
C113       C1737   1.550   1_556  S
C113       C1929   1.547       .  S
C114       C1425   1.539       .  S
C114       C1433   1.551       .  S
C114       C1697   1.551   1_556  S
C114       C1985   1.547       .  S
C115       C1393   1.570       .  S
C115       C1409   1.562       .  S
C115       C1641   1.568       .  S
C115       C1841   1.559       .  S
C116       C1361   1.540       .  S
C116       C1369   1.552       .  S
C116       C1617   1.559       .  S
C116       C1881   1.544       .  S
O117        C128   1.289       .  A
O117       Eu153   2.449       .  S
O118        C129   1.290   1_455  A
O118       Eu152   2.455       .  S
O119        C130   1.292       .  A
O119       Eu125   2.461       .  S
O120        C131   1.297       .  A
O120       Eu125   2.496       .  S
O121        C131   1.287       .  A
O121       Eu155   2.423       .  S
O122        C130   1.299       .  A
O122       Eu154   2.508       .  S
O123        C129   1.288       .  A
O123       Eu125   2.438       .  S
O124        C128   1.292       .  A
O124       Eu125   2.462       .  S
Eu125       O135   2.343       .  S
Eu125       O127   2.350       .  S
Eu125       O126   2.350       .  S
Eu125       O133   2.364       .  S
O126       Eu155   2.348       .  S
O126       Eu152   2.328   1_655  S
O127       Eu153   2.349       .  S
O127       Eu154   2.365       .  S
C128       C1489   1.483       .  S
C129       C1201   1.476       .  S
C130       C1313   1.486       .  S
C131       C1273   1.488       .  S
H132        O133   0.966       .  S
O133       Eu154   2.377       .  S
O133       Eu152   2.352   1_655  S
H134        O135   0.966       .  S
O135       Eu153   2.343       .  S
O135       Eu155   2.381       .  S
O136        C159   1.285       .  A
O136       Eu152   2.428       .  S
O137        C160   1.286       .  A
O137       Eu153   2.422       .  S
O138        C161   1.295       .  A
O138       Eu154   2.484   1_455  S
O139        C162   1.295       .  A
O139       Eu155   2.483   1_455  S
O140        C163   1.293       .  A
O140       Eu155   2.462       .  S
O141        C164   1.294       .  A
O141       Eu154   2.472       .  S
O142        C165   1.288       .  A
O142       Eu156   2.445       .  S
O143        C166   1.287       .  A
O143       Eu156   2.434       .  S
O144        C165   1.299       .  A
O144       Eu154   2.511   1_455  S
O145        C166   1.298       .  A
O145       Eu155   2.497   1_455  S
O146        C161   1.288       .  A
O146       Eu152   2.450       .  S
O147        C164   1.293       .  A
O147       Eu153   2.472       .  S
O148        C163   1.299       .  A
O148       Eu153   2.506       .  S
O149        C162   1.288       .  A
O149       Eu152   2.450       .  S
O150        C159   1.291       .  A
O150       Eu156   2.463       .  S
O151        C160   1.295   1_455  A
O151       Eu156   2.481       .  S
Eu152       O170   2.366       .  S
Eu152       O158   2.359       .  S
Eu153       O157   2.357       .  S
Eu153       O168   2.367       .  S
Eu154       O168   2.368       .  S
Eu154       O158   2.348   1_655  S
Eu155       O157   2.342       .  S
Eu155       O170   2.347   1_655  S
Eu156       O157   2.350   1_455  S
Eu156       O168   2.341   1_455  S
Eu156       O170   2.359       .  S
Eu156       O158   2.358       .  S
C159       C1353   1.455       .  S
C160       C1209   1.478       .  S
C161       C1289   1.472       .  S
C162       C1233   1.476       .  S
C163       C1257   1.490       .  S
C164       C1321   1.475       .  S
C165       C1345   1.482       .  S
C166       C1241   1.482       .  S
H167        O168   0.966       .  S
H169        O170   0.965       .  S
O171        C182   1.294       .  A
O171       Eu207   2.468       .  S
O172        C183   1.291   1_455  A
O172       Eu206   2.449       .  S
O173        C184   1.291       .  A
O173       Eu179   2.463       .  S
O174        C185   1.295       .  A
O174       Eu179   2.488       .  S
O175        C185   1.295       .  A
O175       Eu209   2.477       .  S
O176        C184   1.293       .  A
O176       Eu208   2.472       .  S
O177        C183   1.300       .  A
O177       Eu179   2.504       .  S
O178        C182   1.299       .  A
O178       Eu179   2.501       .  S
Eu179       O189   2.359       .  S
Eu179       O181   2.369       .  S
Eu179       O180   2.363       .  S
Eu179       O187   2.369       .  S
O180       Eu209   2.354       .  S
O180       Eu206   2.372   1_655  S
O181       Eu207   2.368       .  S
O181       Eu208   2.367       .  S
C182       C1761   1.494       .  S
C183       C1041   1.494   1_655  S
C184       C1065   1.473       .  S
C185       C1161   1.497       .  S
H186        O187   0.965       .  S
O187       Eu208   2.334       .  S
O187       Eu206   2.357   1_655  S
H188        O189   0.965       .  S
O189       Eu207   2.368       .  S
O189       Eu209   2.334       .  S
O190        C213   1.295       .  A
O190       Eu206   2.481       .  S
O191        C214   1.299       .  A
O191       Eu207   2.502       .  S
O192        C215   1.297       .  A
O192       Eu208   2.497   1_455  S
O193        C216   1.288       .  A
O193       Eu209   2.436   1_455  S
O194        C217   1.290       .  A
O194       Eu209   2.458       .  S
O195        C218   1.292       .  A
O195       Eu208   2.468       .  S
O196        C219   1.293       .  A
O196       Eu210   2.474       .  S
O197        C220   1.295       .  A
O197       Eu210   2.493       .  S
O198        C219   1.292       .  A
O198       Eu208   2.451   1_455  S
O199        C220   1.292       .  A
O199       Eu209   2.455   1_455  S
O200        C215   1.291       .  A
O200       Eu206   2.465       .  S
O201        C218   1.293       .  A
O201       Eu207   2.469       .  S
O202        C217   1.292       .  A
O202       Eu207   2.466       .  S
O203        C216   1.288       .  A
O203       Eu206   2.439       .  S
O204        C213   1.292       .  A
O204       Eu210   2.464       .  S
O205        C214   1.285   1_455  A
O205       Eu210   2.421       .  S
Eu206       O224   2.346       .  S
Eu206       O212   2.352       .  S
Eu207       O211   2.351       .  S
Eu207       O222   2.348       .  S
Eu208       O222   2.358       .  S
Eu208       O212   2.370   1_655  S
Eu209       O211   2.354       .  S
Eu209       O224   2.349   1_655  S
Eu210       O211   2.361   1_455  S
Eu210       O222   2.365   1_455  S
Eu210       O224   2.340       .  S
Eu210       O212   2.369       .  S
C213       C1385   1.493       .  S
C214       C1057   1.481       .  S
C215       C1121   1.488       .  S
C216       C1185   1.458       .  S
C217       C1145   1.468       .  S
C218       C1081   1.473       .  S
C219       C1097   1.486       .  S
C220       C1137   1.499       .  S
H221        O222   0.965       .  S
H223        O224   0.965       .  S
C225       C1009   1.557       .  S
C225       C1017   1.555       .  S
C225       C1089   1.561       .  S
C225       C1265   1.574       .  S
C226        C969   1.569       .  S
C226        C985   1.571       .  S
C226       C1105   1.563       .  S
C226       C1249   1.568       .  S
C227        C961   1.565       .  S
C227       C1169   1.575       .  S
C227       C1305   1.573   1_545  S
C227       C1593   1.575       .  S
C228        C937   1.548       .  S
C228       C1153   1.556       .  S
C228       C1329   1.553   1_545  S
C228       C1817   1.555       .  S
C229        C905   1.558       .  S
C229        C921   1.558       .  S
C229       C1073   1.563       .  S
C229       C1281   1.563       .  S
C230        C873   1.554       .  S
C230        C897   1.562       .  S
C230       C1113   1.565       .  S
C230       C1225   1.559       .  S
C231        C857   1.556       .  S
C231       C1177   1.551       .  S
C231       C1297   1.555   1_545  S
C231       C1585   1.556       .  S
C232        C841   1.557       .  S
C232       C1129   1.571       .  S
C232       C1337   1.565   1_545  S
C232       C1801   1.565   1_545  S
O233        C244   1.292       .  A
O233       Eu269   2.456       .  S
O234        C245   1.295       .  A
O234       Eu268   2.479       .  S
O235        C246   1.292       .  A
O235       Eu241   2.462       .  S
O236        C247   1.292       .  A
O236       Eu241   2.469       .  S
O237        C247   1.290       .  A
O237       Eu271   2.452       .  S
O238        C246   1.287       .  A
O238       Eu270   2.438       .  S
O239        C245   1.291       .  A
O239       Eu241   2.455       .  S
O240        C244   1.294   1_554  A
O240       Eu241   2.474       .  S
Eu241       O251   2.362       .  S
Eu241       O243   2.337       .  S
Eu241       O242   2.348       .  S
Eu241       O249   2.370       .  S
O242       Eu271   2.349       .  S
O242       Eu268   2.356       .  S
O243       Eu269   2.344   1_554  S
O243       Eu270   2.340       .  S
C244       C1521   1.492       .  S
C245        C913   1.488       .  S
C246        C729   1.465       .  S
C247        C833   1.471       .  S
H248        O249   0.965       .  S
O249       Eu270   2.372       .  S
O249       Eu268   2.362       .  S
H250        O251   0.968   1_556  S
O251       Eu269   2.364   1_554  S
O251       Eu271   2.367       .  S
O252        C275   1.293       .  A
O252       Eu268   2.468       .  S
O253        C276   1.295       .  A
O253       Eu269   2.479       .  S
O254        C277   1.296       .  A
O254       Eu270   2.484       .  S
O255        C278   1.293       .  A
O255       Eu271   2.473       .  S
O256        C279   1.294       .  A
O256       Eu271   2.468   1_556  S
O257        C280   1.290       .  A
O257       Eu270   2.452   1_556  S
O258        C281   1.292       .  A
O258       Eu272   2.470       .  S
O259        C282   1.290       .  A
O259       Eu272   2.456       .  S
O260        C281   1.292       .  A
O260       Eu270   2.457   1_556  S
O261        C282   1.290       .  A
O261       Eu271   2.454   1_556  S
O262        C277   1.295       .  A
O262       Eu268   2.488       .  S
O263        C280   1.294       .  A
O263       Eu269   2.477       .  S
O264        C279   1.296       .  A
O264       Eu269   2.492       .  S
O265        C278   1.293       .  A
O265       Eu268   2.465       .  S
O266        C275   1.287   1_556  A
O266       Eu272   2.425       .  S
O267        C276   1.291       .  A
O267       Eu272   2.454       .  S
Eu268       O286   2.360       .  S
Eu268       O274   2.364       .  S
Eu269       O273   2.350       .  S
Eu269       O284   2.361       .  S
Eu270       O284   2.368   1_554  S
Eu270       O274   2.340       .  S
Eu271       O273   2.344   1_554  S
Eu271       O286   2.355       .  S
Eu272       O273   2.350       .  S
Eu272       O284   2.345       .  S
Eu272       O286   2.349   1_556  S
Eu272       O274   2.360   1_556  S
C275       C1417   1.477       .  S
C276       C1001   1.485       .  S
C277        C713   1.495       .  S
C278        C785   1.476       .  S
C279        C809   1.494       .  S
C280        C753   1.471       .  S
C281        C761   1.480       .  S
C282        C801   1.464       .  S
H283        O284   0.965       .  S
H285        O286   0.965       .  S
O287        C298   1.296   1_556  A
O287       Eu323   2.483       .  S
O288        C299   1.292       .  A
O288       Eu322   2.461       .  S
O289        C300   1.290       .  A
O289       Eu295   2.455       .  S
O290        C301   1.296       .  A
O290       Eu295   2.492       .  S
O291        C301   1.287       .  A
O291       Eu325   2.430       .  S
O292        C300   1.288       .  A
O292       Eu324   2.441       .  S
O293        C299   1.296       .  A
O293       Eu295   2.483       .  S
O294        C298   1.291       .  A
O294       Eu295   2.454       .  S
Eu295       O305   2.362       .  S
Eu295       O297   2.368       .  S
Eu295       O296   2.346       .  S
Eu295       O303   2.351       .  S
O296       Eu325   2.352       .  S
O296       Eu322   2.353       .  S
O297       Eu323   2.357   1_554  S
O297       Eu324   2.355       .  S
C298       C1553   1.484       .  S
C299        C881   1.493       .  S
C300        C617   1.455       .  S
C301        C689   1.490       .  S
H302        O303   0.964       .  S
O303       Eu324   2.343       .  S
O303       Eu322   2.342       .  S
H304        O305   0.965       .  S
O305       Eu323   2.366   1_554  S
O305       Eu325   2.335       .  S
O306        C329   1.290   1_554  A
O306       Eu322   2.440       .  S
O307        C330   1.297       .  A
O307       Eu323   2.501       .  S
O308        C331   1.292       .  A
O308       Eu324   2.466       .  S
O309        C332   1.293       .  A
O309       Eu325   2.460       .  S
O310        C333   1.294       .  A
O310       Eu325   2.478   1_556  S
O311        C334   1.293       .  A
O311       Eu324   2.474   1_556  S
O312        C335   1.292       .  A
O312       Eu326   2.466       .  S
O313        C336   1.288       .  A
O313       Eu326   2.443       .  S
O314        C335   1.292       .  A
O314       Eu324   2.460   1_556  S
O315        C336   1.286       .  A
O315       Eu325   2.428   1_556  S
O316        C331   1.292       .  A
O316       Eu322   2.469       .  S
O317        C334   1.286       .  A
O317       Eu323   2.432       .  S
O318        C333   1.288       .  A
O318       Eu323   2.446       .  S
O319        C332   1.294       .  A
O319       Eu322   2.482       .  S
O320        C329   1.297       .  A
O320       Eu326   2.495       .  S
O321        C330   1.297       .  A
O321       Eu326   2.497       .  S
Eu322       O340   2.359       .  S
Eu322       O328   2.363       .  S
Eu323       O327   2.347       .  S
Eu323       O338   2.364       .  S
Eu324       O338   2.346   1_554  S
Eu324       O328   2.353       .  S
Eu325       O327   2.355   1_554  S
Eu325       O340   2.342       .  S
Eu326       O327   2.359       .  S
Eu326       O338   2.362       .  S
Eu326       O340   2.370   1_556  S
Eu326       O328   2.361   1_556  S
C329       C1457   1.488       .  S
C330        C977   1.498       .  S
C331        C601   1.479       .  S
C332        C697   1.493       .  S
C333        C673   1.471       .  S
C334        C641   1.461       .  S
C335        C585   1.481       .  S
C336        C649   1.447       .  S
H337        O338   0.965       .  S
H339        O340   0.965   1_556  S
C341        C569   1.557   1_455  S
C341        C633   1.552       .  S
C341        C817   1.570   1_455  S
C341       C1217   1.554       .  S
C342        C561   1.559       .  S
C342        C593   1.559   1_655  S
C342        C793   1.558       .  S
C342       C1049   1.563       .  S
C343        C537   1.556       .  S
C343        C665   1.556       .  S
C343        C745   1.557       .  S
C343       C1913   1.559       .  S
C344        C521   1.545       .  S
C344        C681   1.558       .  S
C344        C737   1.553       .  S
C344       C1681   1.553       .  S
C345        C505   1.551       .  S
C345        C609   1.564   1_655  S
C345        C777   1.556       .  S
C345       C1033   1.553       .  S
C346        C489   1.551       .  S
C346        C625   1.554   1_655  S
C346        C825   1.553       .  S
C346       C1193   1.552   1_655  S
C347        C481   1.558       .  S
C347        C657   1.555       .  S
C347        C769   1.559       .  S
C347       C1897   1.564       .  S
C348        C465   1.562       .  S
C348        C705   1.566       .  S
C348        C721   1.571       .  S
C348       C1657   1.568       .  S
O349        C360   1.302       .  A
O349       Eu385   2.527       .  S
O350        C361   1.299       .  A
O350       Eu384   2.510       .  S
O351        C362   1.304       .  A
O351       Eu357   2.563       .  S
O352        C363   1.304       .  A
O352       Eu357   2.534       .  S
O353        C363   1.283       .  A
O353       Eu387   2.397       .  S
O354        C362   1.272       .  A
O354       Eu386   2.377       .  S
O355        C361   1.285       .  A
O355       Eu357   2.412       .  S
O356        C360   1.285       .  A
O356       Eu357   2.419       .  S
Eu357       O367   2.365       .  S
Eu357       O359   2.345       .  S
Eu357       O358   2.383       .  S
Eu357       O365   2.365       .  S
O358       Eu387   2.364       .  S
O358       Eu384   2.356       .  S
O359       Eu385   2.337       .  S
O359       Eu386   2.360       .  S
C360       C1793   1.486       .  S
C361        C473   1.468       .  S
C362       C1025   1.489       .  S
C363       C1401   1.491       .  S
H364        O365   0.965       .  S
O365       Eu386   2.358       .  S
O365       Eu384   2.350       .  S
H366        O367   0.965       .  S
O367       Eu385   2.341       .  S
O367       Eu387   2.378       .  S
O368        C391   1.300       .  A
O368       Eu384   2.517       .  S
O369        C392   1.294       .  A
O369       Eu385   2.484       .  S
O370        C393   1.295       .  A
O370       Eu386   2.490       .  S
O371        C394   1.299       .  A
O371       Eu387   2.514       .  S
O372        C395   1.297       .  A
O372       Eu387   2.497       .  S
O373        C396   1.296       .  A
O373       Eu386   2.495       .  S
O374        C397   1.294       .  A
O374       Eu388   2.485       .  S
O375        C398   1.293       .  A
O375       Eu388   2.477       .  S
O376        C397   1.285       .  A
O376       Eu386   2.419       .  S
O377        C398   1.289       .  A
O377       Eu387   2.444       .  S
O378        C393   1.282       .  A
O378       Eu384   2.400       .  S
O379        C396   1.288       .  A
O379       Eu385   2.429       .  S
O380        C395   1.285       .  A
O380       Eu385   2.411       .  S
O381        C394   1.282       .  A
O381       Eu384   2.401       .  S
O382        C391   1.281       .  A
O382       Eu388   2.389       .  S
O383        C392   1.284       .  A
O383       Eu388   2.404       .  S
Eu384       O402   2.340       .  S
Eu384       O390   2.345       .  S
Eu385       O389   2.354       .  S
Eu385       O400   2.373       .  S
Eu386       O400   2.351       .  S
Eu386       O390   2.322       .  S
Eu387       O389   2.333       .  S
Eu387       O402   2.334       .  S
Eu388       O389   2.334       .  S
Eu388       O400   2.347       .  S
Eu388       O402   2.340       .  S
Eu388       O390   2.333       .  S
C391       C1377   1.483       .  S
C392        C529   1.480       .  S
C393        C545   1.463       .  S
C394        C993   1.476       .  S
C395        C457   1.480       .  S
C396        C929   1.479       .  S
C397       C1505   1.481       .  S
C398        C889   1.475       .  S
H399        O400   0.968       .  S
H401        O402   0.965       .  S
O403        C414   1.297       .  A
O403       Eu439   2.500       .  S
O404        C415   1.296   1_655  A
O404       Eu438   2.491       .  S
O405        C416   1.296       .  A
O405       Eu411   2.499       .  S
O406        C417   1.293       .  A
O406       Eu411   2.470   1_545  S
O407        C417   1.284       .  A
O407       Eu441   2.403   1_556  S
O408        C416   1.285   1_655  A
O408       Eu440   2.418       .  S
O409        C415   1.285       .  A
O409       Eu411   2.413   1_545  S
O410        C414   1.283   1_556  A
O410       Eu411   2.405       .  S
Eu411       O421   2.350   1_566  S
Eu411       O413   2.343   1_556  S
Eu411       O412   2.349   1_565  S
Eu411       O419   2.338   1_455  S
O412       Eu441   2.346   1_556  S
O412       Eu438   2.343   1_455  S
O413       Eu439   2.346       .  S
O413       Eu440   2.336   1_454  S
C414       C1569   1.474       .  S
C415        C849   1.476       .  S
C416        C577   1.493       .  S
C417       C1465   1.468       .  S
H418        O419   0.966       .  S
O419       Eu440   2.349       .  S
O419       Eu438   2.361   1_565  S
H420        O421   0.965       .  S
O421       Eu439   2.345   1_545  S
O421       Eu441   2.349       .  S
O422        C445   1.295       .  A
O422       Eu438   2.490       .  S
O423        C446   1.297       .  A
O423       Eu439   2.498   1_655  S
O424        C447   1.292       .  A
O424       Eu440   2.469       .  S
O425        C448   1.297       .  A
O425       Eu441   2.495   1_556  S
O426        C449   1.296       .  A
O426       Eu441   2.499       .  S
O427        C450   1.293       .  A
O427       Eu440   2.475   1_554  S
O428        C451   1.293       .  A
O428       Eu442   2.476   1_565  S
O429        C452   1.292       .  A
O429       Eu442   2.473       .  S
O430        C451   1.282       .  A
O430       Eu440   2.397   1_554  S
O431        C452   1.286       .  A
O431       Eu441   2.420   1_655  S
O432        C447   1.286   1_545  A
O432       Eu438   2.416       .  S
O433        C450   1.285       .  A
O433       Eu439   2.414   1_655  S
O434        C449   1.282       .  A
O434       Eu439   2.399   1_545  S
O435        C448   1.288   1_655  A
O435       Eu438   2.436       .  S
O436        C445   1.286   1_554  A
O436       Eu442   2.421       .  S
O437        C446   1.285   1_545  A
O437       Eu442   2.422       .  S
Eu438       O456   2.356   1_556  S
Eu438       O444   2.349       .  S
Eu439       O443   2.346   1_465  S
Eu439       O454   2.349   1_455  S
Eu440       O454   2.351   1_556  S
Eu440       O444   2.351   1_565  S
Eu441       O443   2.341   1_455  S
Eu441       O456   2.353   1_455  S
Eu442       O443   2.346       .  S
Eu442       O454   2.353   1_545  S
Eu442       O456   2.356       .  S
Eu442       O444   2.345   1_554  S
C445       C1441   1.488       .  S
C446        C953   1.469       .  S
C447        C945   1.467       .  S
C448        C553   1.488       .  S
C449        C865   1.463       .  S
C450        C497   1.477       .  S
C451       C1537   1.470       .  S
C452        C513   1.465       .  S
H453        O454   0.966       .  S
H455        O456   0.965       .  S
C457        C458   1.405       .  A
C457        C462   1.406       .  A
C458        C459   1.405       .  A
C458        H467   1.083       .  S
C459        C460   1.409       .  A
C459        H468   1.083       .  S
C460        C466   1.411       .  A
C460        C461   1.409       .  A
C461        C463   1.396       .  A
C461        C462   1.397       .  A
C462        H469   1.085       .  S
C463        C464   1.391       .  A
C463        H470   1.084       .  S
C464        C465   1.416       .  A
C464        H471   1.083       .  S
C465        C466   1.420       .  A
C466        H472   1.077       .  S
C473        C474   1.402       .  A
C473        C478   1.404       .  A
C474        C475   1.402       .  A
C474        H483   1.083       .  S
C475        C476   1.406       .  A
C475        H484   1.083       .  S
C476        C482   1.408       .  A
C476        C477   1.411       .  A
C477        C479   1.398       .  A
C477        C478   1.401       .  A
C478        H485   1.085       .  S
C479        C480   1.394       .  A
C479        H486   1.084       .  S
C480        C481   1.416       .  A
C480        H487   1.081       .  S
C481        C482   1.417       .  A
C482        H488   1.084       .  S
C489        C490   1.414   1_655  A
C489        C494   1.418       .  A
C490        C491   1.386       .  A
C490        H499   1.083       .  S
C491        C492   1.395   1_455  A
C491        H500   1.084       .  S
C492        C498   1.390       .  A
C492        C493   1.409       .  A
C493        C495   1.407       .  A
C493        C494   1.403       .  A
C494        H501   1.079       .  S
C495        C496   1.402       .  A
C495        H502   1.084       .  S
C496        C497   1.405       .  A
C496        H503   1.083       .  S
C497        C498   1.405       .  A
C498        H504   1.084   1_655  S
C505        C506   1.415   1_655  A
C505        C510   1.417       .  A
C506        C507   1.393       .  A
C506        H515   1.083       .  S
C507        C508   1.397   1_455  A
C507        H516   1.084       .  S
C508        C514   1.397       .  A
C508        C509   1.410       .  A
C509        C511   1.405       .  A
C509        C510   1.400       .  A
C510        H517   1.081       .  S
C511        C512   1.398       .  A
C511        H518   1.083       .  S
C512        C513   1.401       .  A
C512        H519   1.083       .  S
C513        C514   1.404       .  A
C514        H520   1.085   1_655  S
C521        C522   1.412       .  A
C521        C526   1.419       .  A
C522        C523   1.383       .  A
C522        H531   1.081       .  S
C523        C524   1.394       .  A
C523        H532   1.084       .  S
C524        C530   1.386       .  A
C524        C525   1.408       .  A
C525        C527   1.409       .  A
C525        C526   1.406       .  A
C526        H533   1.084       .  S
C527        C528   1.407       .  A
C527        H534   1.083       .  S
C528        C529   1.406       .  A
C528        H535   1.083       .  S
C529        C530   1.405       .  A
C530        H536   1.084       .  S
C537        C538   1.420       .  A
C537        C542   1.413       .  A
C538        C539   1.391       .  A
C538        H547   1.079       .  S
C539        C540   1.393       .  A
C539        H548   1.084       .  S
C540        C546   1.401       .  A
C540        C541   1.413       .  A
C541        C543   1.401       .  A
C541        C542   1.404       .  A
C542        H549   1.084       .  S
C543        C544   1.396       .  A
C543        H550   1.084       .  S
C544        C545   1.406       .  A
C544        H551   1.084       .  S
C545        C546   1.397       .  A
C546        H552   1.085       .  S
C553        C554   1.406       .  A
C553        C558   1.410   1_455  A
C554        C555   1.402       .  A
C554        H563   1.083       .  S
C555        C556   1.406       .  A
C555        H564   1.084       .  S
C556        C562   1.408       .  A
C556        C557   1.410   1_455  A
C557        C559   1.399       .  A
C557        C558   1.403       .  A
C558        H565   1.084       .  S
C559        C560   1.394       .  A
C559        H566   1.084       .  S
C560        C561   1.414       .  A
C560        H567   1.083       .  S
C561        C562   1.420   1_655  A
C562        H568   1.080       .  S
C569        C570   1.414       .  A
C569        C574   1.423   1_655  A
C570        C571   1.390       .  A
C570        H579   1.080       .  S
C571        C572   1.396       .  A
C571        H580   1.084       .  S
C572        C578   1.396       .  A
C572        C573   1.407   1_655  A
C573        C575   1.410       .  A
C573        C574   1.413       .  A
C574        H581   1.084       .  S
C575        C576   1.410       .  A
C575        H582   1.083       .  S
C576        C577   1.407       .  A
C576        H583   1.083       .  S
C577        C578   1.410   1_455  A
C578        H584   1.084       .  S
C585        C586   1.404       .  A
C585        C590   1.412       .  A
C586        C587   1.392       .  A
C586        H595   1.084       .  S
C587        C588   1.399       .  A
C587        H596   1.084       .  S
C588        C594   1.397       .  A
C588        C589   1.410       .  A
C589        C591   1.406       .  A
C589        C590   1.414       .  A
C590        H597   1.084       .  S
C591        C592   1.408       .  A
C591        H598   1.083       .  S
C592        C593   1.414       .  A
C592        H599   1.079       .  S
C593        C594   1.416       .  A
C594        H600   1.084       .  S
C601        C602   1.405       .  A
C601        C606   1.404       .  A
C602        C603   1.401       .  A
C602        H611   1.083       .  S
C603        C604   1.404       .  A
C603        H612   1.083       .  S
C604        C610   1.409       .  A
C604        C605   1.412       .  A
C605        C607   1.397       .  A
C605        C606   1.408       .  A
C606        H613   1.085       .  S
C607        C608   1.398       .  A
C607        H614   1.084       .  S
C608        C609   1.419       .  A
C608        H615   1.076       .  S
C609        C610   1.417       .  A
C610        H616   1.084       .  S
C617        C618   1.401       .  A
C617        C622   1.395       .  A
C618        C619   1.396       .  A
C618        H627   1.083       .  S
C619        C620   1.402       .  A
C619        H628   1.083       .  S
C620        C626   1.402       .  A
C620        C621   1.414       .  A
C621        C623   1.392       .  A
C621        C622   1.398       .  A
C622        H629   1.085       .  S
C623        C624   1.389       .  A
C623        H630   1.084       .  S
C624        C625   1.420       .  A
C624        H631   1.078       .  S
C625        C626   1.412       .  A
C626        H632   1.084       .  S
C633        C634   1.414       .  A
C633        C638   1.415       .  A
C634        C635   1.393       .  A
C634        H643   1.083       .  S
C635        C636   1.397       .  A
C635        H644   1.084       .  S
C636        C642   1.402       .  A
C636        C637   1.414       .  A
C637        C639   1.404       .  A
C637        C638   1.403       .  A
C638        H645   1.080       .  S
C639        C640   1.397       .  A
C639        H646   1.084       .  S
C640        C641   1.401       .  A
C640        H647   1.084       .  S
C641        C642   1.399       .  A
C642        H648   1.085       .  S
C649        C650   1.398       .  A
C649        C654   1.400       .  A
C650        C651   1.387       .  A
C650        H659   1.084       .  S
C651        C652   1.400       .  A
C651        H660   1.084       .  S
C652        C658   1.390       .  A
C652        C653   1.411       .  A
C653        C655   1.398       .  A
C653        C654   1.400       .  A
C654        H661   1.085       .  S
C655        C656   1.396       .  A
C655        H662   1.084       .  S
C656        C657   1.416       .  A
C656        H663   1.083       .  S
C657        C658   1.412       .  A
C658        H664   1.076       .  S
C665        C666   1.416       .  A
C665        C670   1.414       .  A
C666        C667   1.402       .  A
C666        H675   1.079       .  S
C667        C668   1.402       .  A
C667        H676   1.084       .  S
C668        C674   1.409       .  A
C668        C669   1.412       .  A
C669        C671   1.403       .  A
C669        C670   1.402       .  A
C670        H677   1.084       .  S
C671        C672   1.396       .  A
C671        H678   1.083       .  S
C672        C673   1.401       .  A
C672        H679   1.084       .  S
C673        C674   1.406       .  A
C674        H680   1.085       .  S
C681        C682   1.417       .  A
C681        C686   1.414       .  A
C682        C683   1.401       .  A
C682        H691   1.082       .  S
C683        C684   1.400       .  A
C683        H692   1.083       .  S
C684        C690   1.412       .  A
C684        C685   1.411       .  A
C685        C687   1.397       .  A
C685        C686   1.402       .  A
C686        H693   1.080       .  S
C687        C688   1.391       .  A
C687        H694   1.084       .  S
C688        C689   1.411       .  A
C688        H695   1.083       .  S
C689        C690   1.410       .  A
C690        H696   1.084       .  S
C697        C698   1.407       .  A
C697        C702   1.415       .  A
C698        C699   1.392       .  A
C698        H707   1.083       .  S
C699        C700   1.398       .  A
C699        H708   1.084       .  S
C700        C706   1.402       .  A
C700        C701   1.410       .  A
C701        C703   1.405       .  A
C701        C702   1.417       .  A
C702        H709   1.084       .  S
C703        C704   1.407       .  A
C703        H710   1.083       .  S
C704        C705   1.416       .  A
C704        H711   1.083       .  S
C705        C706   1.416       .  A
C706        H712   1.080       .  S
C713        C714   1.406       .  A
C713        C718   1.413       .  A
C714        C715   1.400       .  A
C714        H723   1.083       .  S
C715        C716   1.403       .  A
C715        H724   1.084       .  S
C716        C722   1.409       .  A
C716        C717   1.411       .  A
C717        C719   1.405       .  A
C717        C718   1.418       .  A
C718        H725   1.084       .  S
C719        C720   1.407       .  A
C719        H726   1.083       .  S
C720        C721   1.415       .  A
C720        H727   1.079       .  S
C721        C722   1.419       .  A
C722        H728   1.084       .  S
C729        C730   1.405       .  A
C729        C734   1.398       .  A
C730        C731   1.398       .  A
C730        H739   1.084       .  S
C731        C732   1.403       .  A
C731        H740   1.084       .  S
C732        C738   1.403       .  A
C732        C733   1.413       .  A
C733        C735   1.395       .  A
C733        C734   1.398       .  A
C734        H741   1.085       .  S
C735        C736   1.391       .  A
C735        H742   1.084       .  S
C736        C737   1.416       .  A
C736        H743   1.080       .  S
C737        C738   1.414       .  A
C738        H744   1.084       .  S
C745        C746   1.419       .  A
C745        C750   1.413       .  A
C746        C747   1.392       .  A
C746        H755   1.083       .  S
C747        C748   1.395       .  A
C747        H756   1.084       .  S
C748        C754   1.403       .  A
C748        C749   1.414       .  A
C749        C751   1.404       .  A
C749        C750   1.409       .  A
C750        H757   1.080       .  S
C751        C752   1.400       .  A
C751        H758   1.083       .  S
C752        C753   1.403       .  A
C752        H759   1.082       .  S
C753        C754   1.401       .  A
C754        H760   1.084       .  S
C761        C762   1.404       .  A
C761        C766   1.411       .  A
C762        C763   1.392       .  A
C762        H771   1.083       .  S
C763        C764   1.400       .  A
C763        H772   1.084       .  S
C764        C770   1.396       .  A
C764        C765   1.409       .  A
C765        C767   1.407       .  A
C765        C766   1.413       .  A
C766        H773   1.084       .  S
C767        C768   1.408       .  A
C767        H774   1.083       .  S
C768        C769   1.411       .  A
C768        H775   1.079       .  S
C769        C770   1.418       .  A
C770        H776   1.084       .  S
C777        C778   1.415       .  A
C777        C782   1.414       .  A
C778        C779   1.399       .  A
C778        H787   1.083       .  S
C779        C780   1.401       .  A
C779        H788   1.084       .  S
C780        C786   1.408       .  A
C780        C781   1.413       .  A
C781        C783   1.402       .  A
C781        C782   1.404       .  A
C782        H789   1.080       .  S
C783        C784   1.397       .  A
C783        H790   1.084       .  S
C784        C785   1.403       .  A
C784        H791   1.083       .  S
C785        C786   1.407       .  A
C786        H792   1.085       .  S
C793        C794   1.415       .  A
C793        C798   1.416       .  A
C794        C795   1.395       .  A
C794        H803   1.083       .  S
C795        C796   1.398       .  A
C795        H804   1.084       .  S
C796        C802   1.403       .  A
C796        C797   1.412       .  A
C797        C799   1.404       .  A
C797        C798   1.402       .  A
C798        H805   1.079       .  S
C799        C800   1.397       .  A
C799        H806   1.084       .  S
C800        C801   1.401       .  A
C800        H807   1.084       .  S
C801        C802   1.401       .  A
C802        H808   1.085       .  S
C809        C810   1.404       .  A
C809        C814   1.415       .  A
C810        C811   1.390       .  A
C810        H819   1.078       .  S
C811        C812   1.396       .  A
C811        H820   1.084       .  S
C812        C818   1.401       .  A
C812        C813   1.410       .  A
C813        C815   1.406       .  A
C813        C814   1.422       .  A
C814        H821   1.084       .  S
C815        C816   1.411       .  A
C815        H822   1.083       .  S
C816        C817   1.418       .  A
C816        H823   1.077       .  S
C817        C818   1.415       .  A
C818        H824   1.083       .  S
C825        C826   1.416       .  A
C825        C830   1.412       .  A
C826        C827   1.401       .  A
C826        H835   1.079       .  S
C827        C828   1.401       .  A
C827        H836   1.084       .  S
C828        C834   1.409       .  A
C828        C829   1.412       .  A
C829        C831   1.398       .  A
C829        C830   1.396       .  A
C830        H837   1.084       .  S
C831        C832   1.390       .  A
C831        H838   1.084       .  S
C832        C833   1.400       .  A
C832        H839   1.075       .  S
C833        C834   1.405       .  A
C834        H840   1.084       .  S
C841        C842   1.416       .  A
C841        C846   1.420       .  A
C842        C843   1.393       .  A
C842        H851   1.079       .  S
C843        C844   1.397       .  A
C843        H852   1.084       .  S
C844        C850   1.397       .  A
C844        C845   1.409       .  A
C845        C847   1.408       .  A
C845        C846   1.406       .  A
C846        H853   1.084       .  S
C847        C848   1.404       .  A
C847        H854   1.083       .  S
C848        C849   1.403       .  A
C848        H855   1.083   1_455  S
C849        C850   1.406       .  A
C850        H856   1.085       .  S
C857        C858   1.420       .  A
C857        C862   1.412       .  A
C858        C859   1.395       .  A
C858        H867   1.078       .  S
C859        C860   1.396       .  A
C859        H868   1.084       .  S
C860        C866   1.405       .  A
C860        C861   1.413       .  A
C861        C863   1.399       .  A
C861        C862   1.401       .  A
C862        H869   1.083   1_545  S
C863        C864   1.394       .  A
C863        H870   1.084   1_545  S
C864        C865   1.405       .  A
C864        H871   1.084   1_545  S
C865        C866   1.401       .  A
C866        H872   1.085       .  S
C873        C874   1.415       .  A
C873        C878   1.418       .  A
C874        C875   1.397       .  A
C874        H883   1.082       .  S
C875        C876   1.399       .  A
C875        H884   1.084       .  S
C876        C882   1.408       .  A
C876        C877   1.411       .  A
C877        C879   1.403       .  A
C877        C878   1.411       .  A
C878        H885   1.082       .  S
C879        C880   1.401       .  A
C879        H886   1.084       .  S
C880        C881   1.410       .  A
C880        H887   1.083       .  S
C881        C882   1.409       .  A
C882        H888   1.084       .  S
C889        C890   1.405       .  A
C889        C894   1.403       .  A
C890        C891   1.403       .  A
C890        H899   1.083       .  S
C891        C892   1.407       .  A
C891        H900   1.084       .  S
C892        C898   1.410       .  A
C892        C893   1.412       .  A
C893        C895   1.396       .  A
C893        C894   1.402       .  A
C894        H901   1.085       .  S
C895        C896   1.393       .  A
C895        H902   1.084       .  S
C896        C897   1.415       .  A
C896        H903   1.081       .  S
C897        C898   1.420       .  A
C898        H904   1.081       .  S
C905        C906   1.417       .  A
C905        C910   1.416       .  A
C906        C907   1.395       .  A
C906        H915   1.083       .  S
C907        C908   1.397       .  A
C907        H916   1.084       .  S
C908        C914   1.407       .  A
C908        C909   1.413       .  A
C909        C911   1.403       .  A
C909        C910   1.410       .  A
C910        H917   1.079       .  S
C911        C912   1.400       .  A
C911        H918   1.084       .  S
C912        C913   1.409       .  A
C912        H919   1.083       .  S
C913        C914   1.406       .  A
C914        H920   1.084       .  S
C921        C922   1.416       .  A
C921        C926   1.420       .  A
C922        C923   1.390       .  A
C922        H931   1.079       .  S
C923        C924   1.395       .  A
C923        H932   1.084       .  S
C924        C930   1.397       .  A
C924        C925   1.409       .  A
C925        C927   1.407       .  A
C925        C926   1.408       .  A
C926        H933   1.084       .  S
C927        C928   1.405       .  A
C927        H934   1.083       .  S
C928        C929   1.404       .  A
C928        H935   1.079       .  S
C929        C930   1.404       .  A
C930        H936   1.085       .  S
C937        C938   1.414       .  A
C937        C942   1.417   1_545  A
C938        C939   1.386       .  A
C938        H947   1.083       .  S
C939        C940   1.394   1_545  A
C939        H948   1.084       .  S
C940        C946   1.392       .  A
C940        C941   1.411       .  A
C941        C943   1.407       .  A
C941        C942   1.406       .  A
C942        H949   1.080       .  S
C943        C944   1.402       .  A
C943        H950   1.083       .  S
C944        C945   1.403       .  A
C944        H951   1.083       .  S
C945        C946   1.401       .  A
C946        H952   1.086   1_565  S
C953        C954   1.402   1_565  A
C953        C958   1.404       .  A
C954        C955   1.401       .  A
C954        H963   1.084       .  S
C955        C956   1.405       .  A
C955        H964   1.083       .  S
C956        C962   1.409       .  A
C956        C957   1.412   1_545  A
C957        C959   1.396       .  A
C957        C958   1.405       .  A
C958        H965   1.085       .  S
C959        C960   1.394       .  A
C959        H966   1.084       .  S
C960        C961   1.419   1_565  A
C960        H967   1.082       .  S
C961        C962   1.418       .  A
C962        H968   1.077       .  S
C969        C970   1.414       .  A
C969        C974   1.424       .  A
C970        C971   1.403       .  A
C970        H979   1.083       .  S
C971        C972   1.402       .  A
C971        H980   1.083       .  S
C972        C978   1.419       .  A
C972        C973   1.412       .  A
C973        C975   1.408       .  A
C973        C974   1.421       .  A
C974        H981   1.081       .  S
C975        C976   1.408       .  A
C975        H982   1.083       .  S
C976        C977   1.405       .  A
C976        H983   1.083       .  S
C977        C978   1.411       .  A
C978        H984   1.084       .  S
C985        C986   1.423       .  A
C985        C990   1.414       .  A
C986        C987   1.398       .  A
C986        H995   1.071       .  S
C987        C988   1.393       .  A
C987        H996   1.084       .  S
C988        C994   1.412       .  A
C988        C989   1.413       .  A
C989        C991   1.396       .  A
C989        C990   1.406       .  A
C990        H997   1.084       .  S
C991        C992   1.392       .  A
C991        H998   1.084       .  S
C992        C993   1.409       .  A
C992        H999   1.084       .  S
C993        C994   1.402       .  A
C994       H1000   1.084       .  S
C1001      C1002   1.408       .  A
C1001      C1006   1.404       .  A
C1002      C1003   1.400       .  A
C1002      H1011   1.083       .  S
C1003      C1004   1.402       .  A
C1003      H1012   1.083       .  S
C1004      C1010   1.413       .  A
C1004      C1005   1.415       .  A
C1005      C1007   1.395       .  A
C1005      C1006   1.408       .  A
C1006      H1013   1.084       .  S
C1007      C1008   1.392       .  A
C1007      H1014   1.084       .  S
C1008      C1009   1.419       .  A
C1008      H1015   1.083       .  S
C1009      C1010   1.413       .  A
C1010      H1016   1.081       .  S
C1017      C1018   1.422       .  A
C1017      C1022   1.403       .  A
C1018      C1019   1.396       .  A
C1018      H1027   1.083       .  S
C1019      C1020   1.395       .  A
C1019      H1028   1.083       .  S
C1020      C1026   1.419       .  A
C1020      C1021   1.420       .  A
C1021      C1023   1.390       .  A
C1021      C1022   1.409       .  A
C1022      H1029   1.081       .  S
C1023      C1024   1.387       .  A
C1023      H1030   1.084       .  S
C1024      C1025   1.414       .  A
C1024      H1031   1.082       .  S
C1025      C1026   1.403       .  A
C1026      H1032   1.084       .  S
C1033      C1034   1.418       .  A
C1033      C1038   1.412   1_655  A
C1034      C1035   1.395       .  A
C1034      H1043   1.083       .  S
C1035      C1036   1.396       .  A
C1035      H1044   1.084       .  S
C1036      C1042   1.412       .  A
C1036      C1037   1.415   1_655  A
C1037      C1039   1.399       .  A
C1037      C1038   1.411       .  A
C1038      H1045   1.082       .  S
C1039      C1040   1.397       .  A
C1039      H1046   1.084       .  S
C1040      C1041   1.412       .  A
C1040      H1047   1.083       .  S
C1041      C1042   1.407   1_455  A
C1042      H1048   1.084       .  S
C1049      C1050   1.421       .  A
C1049      C1054   1.415   1_655  A
C1050      C1051   1.394       .  A
C1050      H1059   1.077       .  S
C1051      C1052   1.394       .  A
C1051      H1060   1.084       .  S
C1052      C1058   1.407       .  A
C1052      C1053   1.413   1_655  A
C1053      C1055   1.401       .  A
C1053      C1054   1.409       .  A
C1054      H1061   1.084       .  S
C1055      C1056   1.398       .  A
C1055      H1062   1.084       .  S
C1056      C1057   1.409   1_455  A
C1056      H1063   1.083       .  S
C1057      C1058   1.402       .  A
C1058      H1064   1.084       .  S
C1065      C1066   1.403       .  A
C1065      C1070   1.404       .  A
C1066      C1067   1.399       .  A
C1066      H1075   1.084       .  S
C1067      C1068   1.404       .  A
C1067      H1076   1.084       .  S
C1068      C1074   1.406       .  A
C1068      C1069   1.412       .  A
C1069      C1071   1.399       .  A
C1069      C1070   1.407       .  A
C1070      H1077   1.085       .  S
C1071      C1072   1.398       .  A
C1071      H1078   1.084       .  S
C1072      C1073   1.417       .  A
C1072      H1079   1.079       .  S
C1073      C1074   1.416       .  A
C1074      H1080   1.084       .  S
C1081      C1082   1.400       .  A
C1081      C1086   1.411       .  A
C1082      C1083   1.392       .  A
C1082      H1091   1.084       .  S
C1083      C1084   1.402       .  A
C1083      H1092   1.084       .  S
C1084      C1090   1.398       .  A
C1084      C1085   1.410       .  A
C1085      C1087   1.407       .  A
C1085      C1086   1.415       .  A
C1086      H1093   1.084       .  S
C1087      C1088   1.408       .  A
C1087      H1094   1.083       .  S
C1088      C1089   1.412       .  A
C1088      H1095   1.083       .  S
C1089      C1090   1.420       .  A
C1090      H1096   1.081       .  S
C1097      C1098   1.408       .  A
C1097      C1102   1.413       .  A
C1098      C1099   1.388       .  A
C1098      H1107   1.083       .  S
C1099      C1100   1.396       .  A
C1099      H1108   1.084       .  S
C1100      C1106   1.394       .  A
C1100      C1101   1.410       .  A
C1101      C1103   1.407       .  A
C1101      C1102   1.411       .  A
C1102      H1109   1.084       .  S
C1103      C1104   1.408       .  A
C1103      H1110   1.083       .  S
C1104      C1105   1.413       .  A
C1104      H1111   1.083       .  S
C1105      C1106   1.414       .  A
C1106      H1112   1.082       .  S
C1113      C1114   1.418       .  A
C1113      C1118   1.419       .  A
C1114      C1115   1.399       .  A
C1114      H1123   1.078       .  S
C1115      C1116   1.399       .  A
C1115      H1124   1.084       .  S
C1116      C1122   1.412       .  A
C1116      C1117   1.412       .  A
C1117      C1119   1.406       .  A
C1117      C1118   1.414       .  A
C1118      H1125   1.084       .  S
C1119      C1120   1.405       .  A
C1119      H1126   1.083       .  S
C1120      C1121   1.405       .  A
C1120      H1127   1.083       .  S
C1121      C1122   1.407       .  A
C1122      H1128   1.084       .  S
C1129      C1130   1.419       .  A
C1129      C1134   1.416       .  A
C1130      C1131   1.410       .  A
C1130      H1139   1.083       .  S
C1131      C1132   1.406       .  A
C1131      H1140   1.083       .  S
C1132      C1138   1.421       .  A
C1132      C1133   1.409       .  A
C1133      C1135   1.396       .  A
C1133      C1134   1.400       .  A
C1134      H1141   1.078       .  S
C1135      C1136   1.388       .  A
C1135      H1142   1.084       .  S
C1136      C1137   1.409       .  A
C1136      H1143   1.083       .  S
C1137      C1138   1.418       .  A
C1138      H1144   1.084       .  S
C1145      C1146   1.402       .  A
C1145      C1150   1.401       .  A
C1146      C1147   1.399       .  A
C1146      H1155   1.083       .  S
C1147      C1148   1.404       .  A
C1147      H1156   1.084       .  S
C1148      C1154   1.404       .  A
C1148      C1149   1.412       .  A
C1149      C1151   1.398       .  A
C1149      C1150   1.404       .  A
C1150      H1157   1.085       .  S
C1151      C1152   1.396       .  A
C1151      H1158   1.084       .  S
C1152      C1153   1.416       .  A
C1152      H1159   1.079       .  S
C1153      C1154   1.415       .  A
C1154      H1160   1.084       .  S
C1161      C1162   1.408       .  A
C1161      C1166   1.413       .  A
C1162      C1163   1.400       .  A
C1162      H1171   1.083       .  S
C1163      C1164   1.403       .  A
C1163      H1172   1.084       .  S
C1164      C1170   1.410       .  A
C1164      C1165   1.410       .  A
C1165      C1167   1.402       .  A
C1165      C1166   1.417       .  A
C1166      H1173   1.084       .  S
C1167      C1168   1.405       .  A
C1167      H1174   1.084       .  S
C1168      C1169   1.419       .  A
C1168      H1175   1.078       .  S
C1169      C1170   1.421       .  A
C1170      H1176   1.084       .  S
C1177      C1178   1.419       .  A
C1177      C1182   1.412       .  A
C1178      C1179   1.385       .  A
C1178      H1187   1.082       .  S
C1179      C1180   1.391       .  A
C1179      H1188   1.084       .  S
C1180      C1186   1.392       .  A
C1180      C1181   1.414       .  A
C1181      C1183   1.403       .  A
C1181      C1182   1.402       .  A
C1182      H1189   1.078       .  S
C1183      C1184   1.397       .  A
C1183      H1190   1.084       .  S
C1184      C1185   1.403       .  A
C1184      H1191   1.083       .  S
C1185      C1186   1.395       .  A
C1186      H1192   1.085       .  S
C1193      C1194   1.417       .  A
C1193      C1198   1.412   1_455  A
C1194      C1195   1.398       .  A
C1194      H1203   1.078       .  S
C1195      C1196   1.399       .  A
C1195      H1204   1.084       .  S
C1196      C1202   1.404       .  A
C1196      C1197   1.411   1_455  A
C1197      C1199   1.400       .  A
C1197      C1198   1.398       .  A
C1198      H1205   1.085       .  S
C1199      C1200   1.393       .  A
C1199      H1206   1.084       .  S
C1200      C1201   1.406       .  A
C1200      H1207   1.083       .  S
C1201      C1202   1.407   1_655  A
C1202      H1208   1.084       .  S
C1209      C1210   1.408       .  A
C1209      C1214   1.404   1_655  A
C1210      C1211   1.393       .  A
C1210      H1219   1.083       .  S
C1211      C1212   1.398       .  A
C1211      H1220   1.084       .  S
C1212      C1218   1.403       .  A
C1212      C1213   1.413   1_655  A
C1213      C1215   1.395       .  A
C1213      C1214   1.405       .  A
C1214      H1221   1.084       .  S
C1215      C1216   1.395       .  A
C1215      H1222   1.084       .  S
C1216      C1217   1.420       .  A
C1216      H1223   1.079       .  S
C1217      C1218   1.410   1_455  A
C1218      H1224   1.084       .  S
C1225      C1226   1.414       .  A
C1225      C1230   1.420       .  A
C1226      C1227   1.393       .  A
C1226      H1235   1.083       .  S
C1227      C1228   1.396       .  A
C1227      H1236   1.084       .  S
C1228      C1234   1.405       .  A
C1228      C1229   1.413       .  A
C1229      C1231   1.406       .  A
C1229      C1230   1.412       .  A
C1230      H1237   1.081       .  S
C1231      C1232   1.403       .  A
C1231      H1238   1.084       .  S
C1232      C1233   1.406       .  A
C1232      H1239   1.083       .  S
C1233      C1234   1.401       .  A
C1234      H1240   1.085       .  S
C1241      C1242   1.408       .  A
C1241      C1246   1.401       .  A
C1242      C1243   1.401       .  A
C1242      H1251   1.083       .  S
C1243      C1244   1.403       .  A
C1243      H1252   1.084       .  S
C1244      C1250   1.414       .  A
C1244      C1245   1.415       .  A
C1245      C1247   1.394       .  A
C1245      C1246   1.408       .  A
C1246      H1253   1.085       .  S
C1247      C1248   1.392       .  A
C1247      H1254   1.084       .  S
C1248      C1249   1.420       .  A
C1248      H1255   1.083       .  S
C1249      C1250   1.415       .  A
C1250      H1256   1.080       .  S
C1257      C1258   1.409       .  A
C1257      C1262   1.405       .  A
C1258      C1259   1.403       .  A
C1258      H1267   1.084       .  S
C1259      C1260   1.404       .  A
C1259      H1268   1.083       .  S
C1260      C1266   1.418       .  A
C1260      C1261   1.414       .  A
C1261      C1263   1.395       .  A
C1261      C1262   1.414       .  A
C1262      H1269   1.084       .  S
C1263      C1264   1.397       .  A
C1263      H1270   1.084       .  S
C1264      C1265   1.422       .  A
C1264      H1271   1.078       .  S
C1265      C1266   1.419       .  A
C1266      H1272   1.083       .  S
C1273      C1274   1.410       .  A
C1273      C1278   1.411       .  A
C1274      C1275   1.386       .  A
C1274      H1283   1.083       .  S
C1275      C1276   1.395       .  A
C1275      H1284   1.084       .  S
C1276      C1282   1.396       .  A
C1276      C1277   1.410       .  A
C1277      C1279   1.402       .  A
C1277      C1278   1.414       .  A
C1278      H1285   1.084       .  S
C1279      C1280   1.405       .  A
C1279      H1286   1.083       .  S
C1280      C1281   1.418       .  A
C1280      H1287   1.083       .  S
C1281      C1282   1.413       .  A
C1282      H1288   1.076       .  S
C1289      C1290   1.401       .  A
C1289      C1294   1.407       .  A
C1290      C1291   1.397       .  A
C1290      H1299   1.084       .  S
C1291      C1292   1.403       .  A
C1291      H1300   1.084       .  S
C1292      C1298   1.401       .  A
C1292      C1293   1.412       .  A
C1293      C1295   1.403       .  A
C1293      C1294   1.408       .  A
C1294      H1301   1.084       .  S
C1295      C1296   1.401       .  A
C1295      H1302   1.084       .  S
C1296      C1297   1.414       .  A
C1296      H1303   1.080       .  S
C1297      C1298   1.415       .  A
C1298      H1304   1.085       .  S
C1305      C1306   1.416       .  A
C1305      C1310   1.422       .  A
C1306      C1307   1.412       .  A
C1306      H1315   1.083       .  S
C1307      C1308   1.408       .  A
C1307      H1316   1.083       .  S
C1308      C1314   1.423       .  A
C1308      C1309   1.410       .  A
C1309      C1311   1.401       .  A
C1309      C1310   1.404       .  A
C1310      H1317   1.079       .  S
C1311      C1312   1.392       .  A
C1311      H1318   1.084       .  S
C1312      C1313   1.401       .  A
C1312      H1319   1.084       .  S
C1313      C1314   1.416       .  A
C1314      H1320   1.084       .  S
C1321      C1322   1.404       .  A
C1321      C1326   1.405       .  A
C1322      C1323   1.397       .  A
C1322      H1331   1.084       .  S
C1323      C1324   1.402       .  A
C1323      H1332   1.084       .  S
C1324      C1330   1.403       .  A
C1324      C1325   1.412       .  A
C1325      C1327   1.401       .  A
C1325      C1326   1.409       .  A
C1326      H1333   1.084       .  S
C1327      C1328   1.400       .  A
C1327      H1334   1.084       .  S
C1328      C1329   1.415       .  A
C1328      H1335   1.079       .  S
C1329      C1330   1.414       .  A
C1330      H1336   1.084       .  S
C1337      C1338   1.415       .  A
C1337      C1342   1.418       .  A
C1338      C1339   1.400       .  A
C1338      H1347   1.080       .  S
C1339      C1340   1.401       .  A
C1339      H1348   1.084       .  S
C1340      C1346   1.409       .  A
C1340      C1341   1.412       .  A
C1341      C1343   1.406       .  A
C1341      C1342   1.410       .  A
C1342      H1349   1.084       .  S
C1343      C1344   1.404       .  A
C1343      H1350   1.083       .  S
C1344      C1345   1.404       .  A
C1344      H1351   1.083       .  S
C1345      C1346   1.407       .  A
C1346      H1352   1.084       .  S
C1353      C1354   1.400       .  A
C1353      C1358   1.400       .  A
C1354      C1355   1.395       .  A
C1354      H1363   1.084       .  S
C1355      C1356   1.404       .  A
C1355      H1364   1.084       .  S
C1356      C1362   1.396       .  A
C1356      C1357   1.411       .  A
C1357      C1359   1.399       .  A
C1357      C1358   1.397       .  A
C1358      H1365   1.085       .  S
C1359      C1360   1.395       .  A
C1359      H1366   1.084       .  S
C1360      C1361   1.411       .  A
C1360      H1367   1.083       .  S
C1361      C1362   1.415       .  A
C1362      H1368   1.082       .  S
C1369      C1370   1.410       .  A
C1369      C1374   1.421       .  A
C1370      C1371   1.394       .  A
C1370      H1379   1.078       .  S
C1371      C1372   1.401       .  A
C1371      H1380   1.084       .  S
C1372      C1378   1.395       .  A
C1372      C1373   1.406       .  A
C1373      C1375   1.409       .  A
C1373      C1374   1.403       .  A
C1374      H1381   1.084       .  S
C1375      C1376   1.405       .  A
C1375      H1382   1.083       .  S
C1376      C1377   1.403       .  A
C1376      H1383   1.083       .  S
C1377      C1378   1.412       .  A
C1378      H1384   1.084       .  S
C1385      C1386   1.408       .  A
C1385      C1390   1.410       .  A
C1386      C1387   1.401       .  A
C1386      H1395   1.083       .  S
C1387      C1388   1.403       .  A
C1387      H1396   1.083       .  S
C1388      C1394   1.412       .  A
C1388      C1389   1.411       .  A
C1389      C1391   1.399       .  A
C1389      C1390   1.412       .  A
C1390      H1397   1.084       .  S
C1391      C1392   1.400       .  A
C1391      H1398   1.084       .  S
C1392      C1393   1.420       .  A
C1392      H1399   1.078       .  S
C1393      C1394   1.419       .  A
C1394      H1400   1.084       .  S
C1401      C1402   1.404       .  A
C1401      C1406   1.414       .  A
C1402      C1403   1.409       .  A
C1402      H1411   1.083       .  S
C1403      C1404   1.412       .  A
C1403      H1412   1.083       .  S
C1404      C1410   1.408       .  A
C1404      C1405   1.405       .  A
C1405      C1407   1.400       .  A
C1405      C1406   1.395       .  A
C1406      H1413   1.084       .  S
C1407      C1408   1.392       .  A
C1407      H1414   1.084       .  S
C1408      C1409   1.412       .  A
C1408      H1415   1.083       .  S
C1409      C1410   1.427       .  A
C1410      H1416   1.079       .  S
C1417      C1418   1.405       .  A
C1417      C1422   1.407   1_554  A
C1418      C1419   1.399       .  A
C1418      H1427   1.083       .  S
C1419      C1420   1.404       .  A
C1419      H1428   1.084       .  S
C1420      C1426   1.399       .  A
C1420      C1421   1.409   1_554  A
C1421      C1423   1.398       .  A
C1421      C1422   1.393       .  A
C1422      H1429   1.084       .  S
C1423      C1424   1.391       .  A
C1423      H1430   1.084       .  S
C1424      C1425   1.412       .  A
C1424      H1431   1.081       .  S
C1425      C1426   1.414   1_556  A
C1426      H1432   1.084       .  S
C1433      C1434   1.414   1_556  A
C1433      C1438   1.420       .  A
C1434      C1435   1.388       .  A
C1434      H1443   1.080       .  S
C1435      C1436   1.395       .  A
C1435      H1444   1.084       .  S
C1436      C1442   1.394       .  A
C1436      C1437   1.408   1_554  A
C1437      C1439   1.408       .  A
C1437      C1438   1.408       .  A
C1438      H1445   1.084       .  S
C1439      C1440   1.407       .  A
C1439      H1446   1.083       .  S
C1440      C1441   1.407       .  A
C1440      H1447   1.083       .  S
C1441      C1442   1.408   1_556  A
C1442      H1448   1.084       .  S
C1449      C1450   1.415       .  A
C1449      C1454   1.412   1_556  A
C1450      C1451   1.404       .  A
C1450      H1459   1.083       .  S
C1451      C1452   1.403       .  A
C1451      H1460   1.083       .  S
C1452      C1458   1.415       .  A
C1452      C1453   1.412   1_556  A
C1453      C1455   1.396       .  A
C1453      C1454   1.399       .  A
C1454      H1461   1.081       .  S
C1455      C1456   1.388       .  A
C1455      H1462   1.084       .  S
C1456      C1457   1.410   1_554  A
C1456      H1463   1.083       .  S
C1457      C1458   1.411       .  A
C1458      H1464   1.084       .  S
C1465      C1466   1.402       .  A
C1465      C1470   1.407       .  A
C1466      C1467   1.395       .  A
C1466      H1475   1.083       .  S
C1467      C1468   1.404       .  A
C1467      H1476   1.084       .  S
C1468      C1474   1.395       .  A
C1468      C1469   1.409       .  A
C1469      C1471   1.399   1_556  A
C1469      C1470   1.392       .  A
C1470      H1477   1.085   1_556  S
C1471      C1472   1.392       .  A
C1471      H1478   1.084       .  S
C1472      C1473   1.411   1_554  A
C1472      H1479   1.083       .  S
C1473      C1474   1.415       .  A
C1474      H1480   1.081       .  S
C1481      C1482   1.421       .  A
C1481      C1486   1.412       .  A
C1482      C1483   1.389       .  A
C1482      H1491   1.083       .  S
C1483      C1484   1.392       .  A
C1483      H1492   1.084       .  S
C1484      C1490   1.404       .  A
C1484      C1485   1.415       .  A
C1485      C1487   1.402       .  A
C1485      C1486   1.414       .  A
C1486      H1493   1.077       .  S
C1487      C1488   1.400       .  A
C1487      H1494   1.083       .  S
C1488      C1489   1.409       .  A
C1488      H1495   1.083       .  S
C1489      C1490   1.403       .  A
C1490      H1496   1.085       .  S
C1497      C1498   1.418       .  A
C1497      C1502   1.418       .  A
C1498      C1499   1.388       .  A
C1498      H1507   1.080       .  S
C1499      C1500   1.394       .  A
C1499      H1508   1.084       .  S
C1500      C1506   1.396       .  A
C1500      C1501   1.409       .  A
C1501      C1503   1.407       .  A
C1501      C1502   1.408       .  A
C1502      H1509   1.083       .  S
C1503      C1504   1.405       .  A
C1503      H1510   1.083       .  S
C1504      C1505   1.405       .  A
C1504      H1511   1.083       .  S
C1505      C1506   1.405       .  A
C1506      H1512   1.085       .  S
C1513      C1514   1.416       .  A
C1513      C1518   1.413   1_554  A
C1514      C1515   1.403       .  A
C1514      H1523   1.083       .  S
C1515      C1516   1.402       .  A
C1515      H1524   1.083       .  S
C1516      C1522   1.414       .  A
C1516      C1517   1.412   1_554  A
C1517      C1519   1.398       .  A
C1517      C1518   1.403       .  A
C1518      H1525   1.081       .  S
C1519      C1520   1.392       .  A
C1519      H1526   1.084       .  S
C1520      C1521   1.409       .  A
C1520      H1527   1.083       .  S
C1521      C1522   1.413   1_556  A
C1522      H1528   1.084       .  S
C1529      C1530   1.407       .  A
C1529      C1534   1.419   1_556  A
C1530      C1531   1.389       .  A
C1530      H1539   1.083       .  S
C1531      C1532   1.399       .  A
C1531      H1540   1.084       .  S
C1532      C1538   1.387       .  A
C1532      C1533   1.407   1_556  A
C1533      C1535   1.408       .  A
C1533      C1534   1.397       .  A
C1534      H1541   1.082       .  S
C1535      C1536   1.401       .  A
C1535      H1542   1.084       .  S
C1536      C1537   1.402       .  A
C1536      H1543   1.083       .  S
C1537      C1538   1.406   1_554  A
C1538      H1544   1.085       .  S
C1545      C1546   1.419       .  A
C1545      C1550   1.416   1_556  A
C1546      C1547   1.394       .  A
C1546      H1555   1.078       .  S
C1547      C1548   1.396       .  A
C1547      H1556   1.084       .  S
C1548      C1554   1.404       .  A
C1548      C1549   1.411   1_556  A
C1549      C1551   1.403       .  A
C1549      C1550   1.408       .  A
C1550      H1557   1.084       .  S
C1551      C1552   1.400       .  A
C1551      H1558   1.084       .  S
C1552      C1553   1.408       .  A
C1552      H1559   1.083       .  S
C1553      C1554   1.405   1_554  A
C1554      H1560   1.084       .  S
C1561      C1562   1.411       .  A
C1561      C1566   1.420   1_556  A
C1562      C1563   1.397       .  A
C1562      H1571   1.083       .  S
C1563      C1564   1.401       .  A
C1563      H1572   1.084       .  S
C1564      C1570   1.400       .  A
C1564      C1565   1.408   1_556  A
C1565      C1567   1.407       .  A
C1565      C1566   1.402       .  A
C1566      H1573   1.081       .  S
C1567      C1568   1.401       .  A
C1567      H1574   1.083       .  S
C1568      C1569   1.401       .  A
C1568      H1575   1.083       .  S
C1569      C1570   1.409   1_554  A
C1570      H1576   1.085       .  S
C1577      C1578   1.408   1_545  A
C1577      C1582   1.411       .  A
C1578      C1579   1.390       .  A
C1578      H1587   1.083       .  S
C1579      C1580   1.398       .  A
C1579      H1588   1.084       .  S
C1580      C1586   1.399       .  A
C1580      C1581   1.410   1_565  A
C1581      C1583   1.402       .  A
C1581      C1582   1.410       .  A
C1582      H1589   1.084       .  S
C1583      C1584   1.402       .  A
C1583      H1590   1.083       .  S
C1584      C1585   1.416       .  A
C1584      H1591   1.083       .  S
C1585      C1586   1.414   1_545  A
C1586      H1592   1.081       .  S
C1593      C1594   1.419       .  A
C1593      C1598   1.420   1_545  A
C1594      C1595   1.402       .  A
C1594      H1603   1.083       .  S
C1595      C1596   1.400       .  A
C1595      H1604   1.084       .  S
C1596      C1602   1.421       .  A
C1596      C1597   1.415   1_545  A
C1597      C1599   1.404       .  A
C1597      C1598   1.423       .  A
C1598      H1605   1.081       .  S
C1599      C1600   1.404       .  A
C1599      H1606   1.083       .  S
C1600      C1601   1.410       .  A
C1600      H1607   1.083       .  S
C1601      C1602   1.412   1_565  A
C1602      H1608   1.084       .  S
C1609      C1610   1.409       .  A
C1609      C1614   1.403       .  A
C1610      C1611   1.398       .  A
C1610      H1619   1.083       .  S
C1611      C1612   1.400       .  A
C1611      H1620   1.083       .  S
C1612      C1618   1.408       .  A
C1612      C1613   1.413       .  A
C1613      C1615   1.393       .  A
C1613      C1614   1.403       .  A
C1614      H1621   1.084       .  S
C1615      C1616   1.391       .  A
C1615      H1622   1.084       .  S
C1616      C1617   1.421       .  A
C1616      H1623   1.081       .  S
C1617      C1618   1.411       .  A
C1618      H1624   1.084       .  S
C1625      C1626   1.404       .  A
C1625      C1630   1.396       .  A
C1626      C1627   1.395       .  A
C1626      H1635   1.084       .  S
C1627      C1628   1.401       .  A
C1627      H1636   1.084       .  S
C1628      C1634   1.400       .  A
C1628      C1629   1.415       .  A
C1629      C1631   1.396       .  A
C1629      C1630   1.399       .  A
C1630      H1637   1.085       .  S
C1631      C1632   1.392       .  A
C1631      H1638   1.084       .  S
C1632      C1633   1.415       .  A
C1632      H1639   1.083       .  S
C1633      C1634   1.409       .  A
C1634      H1640   1.080       .  S
C1641      C1642   1.418       .  A
C1641      C1646   1.419       .  A
C1642      C1643   1.397       .  A
C1642      H1651   1.077       .  S
C1643      C1644   1.397       .  A
C1643      H1652   1.084       .  S
C1644      C1650   1.407       .  A
C1644      C1645   1.412       .  A
C1645      C1647   1.405       .  A
C1645      C1646   1.409       .  A
C1646      H1653   1.084       .  S
C1647      C1648   1.402       .  A
C1647      H1654   1.083       .  S
C1648      C1649   1.404       .  A
C1648      H1655   1.083       .  S
C1649      C1650   1.403       .  A
C1650      H1656   1.085       .  S
C1657      C1658   1.423       .  A
C1657      C1662   1.418       .  A
C1658      C1659   1.389       .  A
C1658      H1667   1.078       .  S
C1659      C1660   1.390       .  A
C1659      H1668   1.084       .  S
C1660      C1666   1.404       .  A
C1660      C1661   1.414       .  A
C1661      C1663   1.406       .  A
C1661      C1662   1.416       .  A
C1662      H1669   1.084       .  S
C1663      C1664   1.405       .  A
C1663      H1670   1.083       .  S
C1664      C1665   1.406       .  A
C1664      H1671   1.083       .  S
C1665      C1666   1.396       .  A
C1666      H1672   1.085       .  S
C1673      C1674   1.406       .  A
C1673      C1678   1.402       .  A
C1674      C1675   1.396       .  A
C1674      H1683   1.080       .  S
C1675      C1676   1.400       .  A
C1675      H1684   1.084       .  S
C1676      C1682   1.405       .  A
C1676      C1677   1.414       .  A
C1677      C1679   1.394       .  A
C1677      C1678   1.404       .  A
C1678      H1685   1.085       .  S
C1679      C1680   1.392       .  A
C1679      H1686   1.084       .  S
C1680      C1681   1.418       .  A
C1680      H1687   1.080       .  S
C1681      C1682   1.411       .  A
C1682      H1688   1.079       .  S
C1689      C1690   1.401       .  A
C1689      C1694   1.403       .  A
C1690      C1691   1.390       .  A
C1690      H1699   1.082       .  S
C1691      C1692   1.399       .  A
C1691      H1700   1.084       .  S
C1692      C1698   1.395       .  A
C1692      C1693   1.413       .  A
C1693      C1695   1.401       .  A
C1693      C1694   1.406       .  A
C1694      H1701   1.084       .  S
C1695      C1696   1.399       .  A
C1695      H1702   1.084       .  S
C1696      C1697   1.415       .  A
C1696      H1703   1.080       .  S
C1697      C1698   1.411       .  A
C1698      H1704   1.085       .  S
C1705      C1706   1.404       .  A
C1705      C1710   1.394       .  A
C1706      C1707   1.396       .  A
C1706      H1715   1.084       .  S
C1707      C1708   1.401       .  A
C1707      H1716   1.083       .  S
C1708      C1714   1.404       .  A
C1708      C1709   1.416       .  A
C1709      C1711   1.390       .  A
C1709      C1710   1.396       .  A
C1710      H1717   1.084       .  S
C1711      C1712   1.384       .  A
C1711      H1718   1.084       .  S
C1712      C1713   1.419       .  A
C1712      H1719   1.081   1_554  S
C1713      C1714   1.407       .  A
C1714      H1720   1.081       .  S
C1721      C1722   1.404       .  A
C1721      C1726   1.401       .  A
C1722      C1723   1.399       .  A
C1722      H1731   1.079       .  S
C1723      C1724   1.402       .  A
C1723      H1732   1.084       .  S
C1724      C1730   1.409       .  A
C1724      C1725   1.415       .  A
C1725      C1727   1.394       .  A
C1725      C1726   1.405       .  A
C1726      H1733   1.085       .  S
C1727      C1728   1.391       .  A
C1727      H1734   1.084       .  S
C1728      C1729   1.418       .  A
C1728      H1735   1.083   1_554  S
C1729      C1730   1.412       .  A
C1730      H1736   1.080       .  S
C1737      C1738   1.413       .  A
C1737      C1742   1.415       .  A
C1738      C1739   1.393       .  A
C1738      H1747   1.083       .  S
C1739      C1740   1.397       .  A
C1739      H1748   1.084       .  S
C1740      C1746   1.402       .  A
C1740      C1741   1.414       .  A
C1741      C1743   1.403       .  A
C1741      C1742   1.402       .  A
C1742      H1749   1.081       .  S
C1743      C1744   1.396       .  A
C1743      H1750   1.084       .  S
C1744      C1745   1.403       .  A
C1744      H1751   1.084       .  S
C1745      C1746   1.398       .  A
C1746      H1752   1.084       .  S
C1753      C1754   1.414       .  A
C1753      C1758   1.419       .  A
C1754      C1755   1.400       .  A
C1754      H1763   1.083       .  S
C1755      C1756   1.401       .  A
C1755      H1764   1.083       .  S
C1756      C1762   1.413       .  A
C1756      C1757   1.412       .  A
C1757      C1759   1.403       .  A
C1757      C1758   1.410       .  A
C1758      H1765   1.081       .  S
C1759      C1760   1.400       .  A
C1759      H1766   1.084       .  S
C1760      C1761   1.409       .  A
C1760      H1767   1.083       .  S
C1761      C1762   1.410       .  A
C1762      H1768   1.084       .  S
C1769      C1770   1.403       .  A
C1769      C1774   1.408       .  A
C1770      C1771   1.393       .  A
C1770      H1779   1.084       .  S
C1771      C1772   1.401       .  A
C1771      H1780   1.084       .  S
C1772      C1778   1.398       .  A
C1772      C1773   1.411       .  A
C1773      C1775   1.403       .  A
C1773      C1774   1.410       .  A
C1774      H1781   1.084       .  S
C1775      C1776   1.404       .  A
C1775      H1782   1.084       .  S
C1776      C1777   1.415       .  A
C1776      H1783   1.079       .  S
C1777      C1778   1.415       .  A
C1778      H1784   1.085       .  S
C1785      C1786   1.422       .  A
C1785      C1790   1.419       .  A
C1786      C1787   1.395       .  A
C1786      H1795   1.077       .  S
C1787      C1788   1.394       .  A
C1787      H1796   1.084       .  S
C1788      C1794   1.411       .  A
C1788      C1789   1.413       .  A
C1789      C1791   1.403       .  A
C1789      C1790   1.415       .  A
C1790      H1797   1.084       .  S
C1791      C1792   1.403       .  A
C1791      H1798   1.084       .  S
C1792      C1793   1.409       .  A
C1792      H1799   1.084       .  S
C1793      C1794   1.402       .  A
C1794      H1800   1.084       .  S
C1801      C1802   1.419       .  A
C1801      C1806   1.414   1_565  A
C1802      C1803   1.402       .  A
C1802      H1811   1.083       .  S
C1803      C1804   1.401       .  A
C1803      H1812   1.084       .  S
C1804      C1810   1.416       .  A
C1804      C1805   1.413   1_565  A
C1805      C1807   1.400       .  A
C1805      C1806   1.410       .  A
C1806      H1813   1.077       .  S
C1807      C1808   1.397       .  A
C1807      H1814   1.084       .  S
C1808      C1809   1.408       .  A
C1808      H1815   1.083       .  S
C1809      C1810   1.413   1_545  A
C1810      H1816   1.084       .  S
C1817      C1818   1.415       .  A
C1817      C1822   1.417   1_545  A
C1818      C1819   1.395       .  A
C1818      H1827   1.078       .  S
C1819      C1820   1.398       .  A
C1819      H1828   1.084       .  S
C1820      C1826   1.401       .  A
C1820      C1821   1.410   1_545  A
C1821      C1823   1.402       .  A
C1821      C1822   1.400       .  A
C1822      H1829   1.084       .  S
C1823      C1824   1.396       .  A
C1823      H1830   1.084       .  S
C1824      C1825   1.406   1_565  A
C1824      H1831   1.083       .  S
C1825      C1826   1.404       .  A
C1826      H1832   1.084       .  S
C1833      C1834   1.404       .  A
C1833      C1838   1.409       .  A
C1834      C1835   1.394       .  A
C1834      H1843   1.084       .  S
C1835      C1836   1.401       .  A
C1835      H1844   1.084       .  S
C1836      C1842   1.399       .  A
C1836      C1837   1.410       .  A
C1837      C1839   1.404       .  A
C1837      C1838   1.411       .  A
C1838      H1845   1.084       .  S
C1839      C1840   1.404       .  A
C1839      H1846   1.084       .  S
C1840      C1841   1.414       .  A
C1840      H1847   1.077       .  S
C1841      C1842   1.418       .  A
C1842      H1848   1.084       .  S
C1849      C1850   1.419       .  A
C1849      C1854   1.415       .  A
C1850      C1851   1.398       .  A
C1850      H1859   1.083       .  S
C1851      C1852   1.398       .  A
C1851      H1860   1.084       .  S
C1852      C1858   1.414       .  A
C1852      C1853   1.415       .  A
C1853      C1855   1.403       .  A
C1853      C1854   1.415       .  A
C1854      H1861   1.080       .  S
C1855      C1856   1.401       .  A
C1855      H1862   1.083       .  S
C1856      C1857   1.405       .  A
C1856      H1863   1.084       .  S
C1857      C1858   1.406       .  A
C1858      H1864   1.084       .  S
C1865      C1866   1.412       .  A
C1865      C1870   1.401       .  A
C1866      C1867   1.408       .  A
C1866      H1875   1.083       .  S
C1867      C1868   1.405       .  A
C1867      H1876   1.083       .  S
C1868      C1874   1.422       .  A
C1868      C1869   1.413       .  A
C1869      C1871   1.387       .  A
C1869      C1870   1.403       .  A
C1870      H1877   1.084       .  S
C1871      C1872   1.384       .  A
C1871      H1878   1.084       .  S
C1872      C1873   1.426       .  A
C1872      H1879   1.079       .  S
C1873      C1874   1.419       .  A
C1874      H1880   1.082       .  S
C1881      C1882   1.412       .  A
C1881      C1886   1.409       .  A
C1882      C1883   1.401       .  A
C1882      H1891   1.080       .  S
C1883      C1884   1.404       .  A
C1883      H1892   1.084       .  S
C1884      C1890   1.402       .  A
C1884      C1885   1.411       .  A
C1885      C1887   1.398       .  A
C1885      C1886   1.387       .  A
C1886      H1893   1.085       .  S
C1887      C1888   1.387       .  A
C1887      H1894   1.084       .  S
C1888      C1889   1.402       .  A
C1888      H1895   1.084       .  S
C1889      C1890   1.406       .  A
C1890      H1896   1.084       .  S
C1897      C1898   1.420       .  A
C1897      C1902   1.416       .  A
C1898      C1899   1.399       .  A
C1898      H1907   1.080       .  S
C1899      C1900   1.398       .  A
C1899      H1908   1.084       .  S
C1900      C1906   1.414       .  A
C1900      C1901   1.413       .  A
C1901      C1903   1.403       .  A
C1901      C1902   1.416       .  A
C1902      H1909   1.084       .  S
C1903      C1904   1.403       .  A
C1903      H1910   1.083       .  S
C1904      C1905   1.410       .  A
C1904      H1911   1.083       .  S
C1905      C1906   1.410       .  A
C1906      H1912   1.084       .  S
C1913      C1914   1.414       .  A
C1913      C1918   1.419       .  A
C1914      C1915   1.398       .  A
C1914      H1923   1.083       .  S
C1915      C1916   1.400       .  A
C1915      H1924   1.083       .  S
C1916      C1922   1.412       .  A
C1916      C1917   1.412       .  A
C1917      C1919   1.403       .  A
C1917      C1918   1.412       .  A
C1918      H1925   1.081       .  S
C1919      C1920   1.401       .  A
C1919      H1926   1.084       .  S
C1920      C1921   1.411       .  A
C1920      H1927   1.083       .  S
C1921      C1922   1.410       .  A
C1922      H1928   1.084       .  S
C1929      C1930   1.419       .  A
C1929      C1934   1.409       .  A
C1930      C1931   1.387       .  A
C1930      H1939   1.082       .  S
C1931      C1932   1.392       .  A
C1931      H1940   1.084       .  S
C1932      C1938   1.399       .  A
C1932      C1933   1.415       .  A
C1933      C1935   1.401       .  A
C1933      C1934   1.405       .  A
C1934      H1941   1.080       .  S
C1935      C1936   1.396       .  A
C1935      H1942   1.083       .  S
C1936      C1937   1.404       .  A
C1936      H1943   1.083       .  S
C1937      C1938   1.399       .  A
C1938      H1944   1.085       .  S
C1945      C1946   1.415       .  A
C1945      C1950   1.416       .  A
C1946      C1947   1.399       .  A
C1946      H1955   1.078       .  S
C1947      C1948   1.400       .  A
C1947      H1956   1.084       .  S
C1948      C1954   1.403       .  A
C1948      C1949   1.411       .  A
C1949      C1951   1.403       .  A
C1949      C1950   1.397       .  A
C1950      H1957   1.085       .  S
C1951      C1952   1.396       .  A
C1951      H1958   1.084       .  S
C1952      C1953   1.402       .  A
C1952      H1959   1.084       .  S
C1953      C1954   1.403       .  A
C1954      H1960   1.085       .  S
C1961      C1962   1.413       .  A
C1961      C1966   1.418       .  A
C1962      C1963   1.394       .  A
C1962      H1971   1.083       .  S
C1963      C1964   1.397       .  A
C1963      H1972   1.084       .  S
C1964      C1970   1.402       .  A
C1964      C1965   1.413       .  A
C1965      C1967   1.404       .  A
C1965      C1966   1.403       .  A
C1966      H1973   1.082       .  S
C1967      C1968   1.397       .  A
C1967      H1974   1.084       .  S
C1968      C1969   1.402       .  A
C1968      H1975   1.082       .  S
C1969      C1970   1.399       .  A
C1970      H1976   1.085       .  S
C1977      C1978   1.401       .  A
C1977      C1982   1.399       .  A
C1978      C1979   1.393       .  A
C1978      H1987   1.083       .  S
C1979      C1980   1.401       .  A
C1979      H1988   1.084       .  S
C1980      C1986   1.401       .  A
C1980      C1981   1.415       .  A
C1981      C1983   1.397       .  A
C1981      C1982   1.403       .  A
C1982      H1989   1.085       .  S
C1983      C1984   1.394       .  A
C1983      H1990   1.084       .  S
C1984      C1985   1.415       .  A
C1984      H1991   1.083       .  S
C1985      C1986   1.411       .  A
C1986      H1992   1.080       .  S
