geometry optimzed in LAMMPS
_audit_creation_date              2020-11-30 
_audit_creation_method            'lammps2cif' 
_symmetry_space_group_name_H-M    'P1' 
_symmetry_Int_Tables_number       1 
_symmetry_cell_setting            triclinic 
loop_ 
_symmetry_equiv_pos_as_xyz 
  x,y,z 
_cell_length_a                    31.78331817324491 
_cell_length_b                    31.66477350751143 
_cell_length_c                    41.69829644879664 
_cell_angle_alpha                 90.84412841525452 
_cell_angle_beta                  89.99459850062505 
_cell_angle_gamma                 90.33070315410947 
loop_ 
_atom_site_label 
_atom_site_type_symbol 
_atom_site_fract_x 
_atom_site_fract_y 
_atom_site_fract_z 
_atom_site_charge 
O1          O  0.47166857  0.00566265  0.08937037    -0.57490
C2          C  0.49758042  0.00561354  0.18848240     0.75140
O3          O  0.59329815  0.95003813  0.12728361    -0.58640
C4          C  0.49145018  0.99417920  0.06435073     0.75110
C5          C  0.56828740  0.08288430  0.11616713     0.77510
Cd6        Cd  0.53344236  0.00026553  0.12552650     1.37470
O7          O  0.47474245  0.99949139  0.16386458    -0.57480
O8          O  0.53137308  0.07624124  0.12615503    -0.56290
C9          C  0.56965672  0.91803538  0.13125289     0.77470
O10         O  0.59174446  0.05078172  0.11290344    -0.58670
O11         O  0.53676786  0.00976838  0.18379704    -0.57120
O12         O  0.52940473  0.98382331  0.06825190    -0.57110
O13         O  0.53055789  0.92492778  0.13280760    -0.56280
O14         O  0.61312935  0.61742865  0.14078787    -0.57490
C15         C  0.61146049  0.74696531  0.16167947     0.75140
O16         O  0.56849726  0.66955080  0.23527132    -0.58640
C17         C  0.61654599  0.58349665  0.15640856     0.75110
C18         C  0.69992267  0.65975431  0.21519282     0.77510
Cd19       Cd  0.61660576  0.66396648  0.18860313     1.37470
O20         O  0.61321366  0.71443893  0.14364962    -0.57480
O21         O  0.69306605  0.66172965  0.18538814    -0.56290
C22         C  0.53586749  0.65837385  0.21974703     0.77470
O23         O  0.66787583  0.66125254  0.23329726    -0.58670
O24         O  0.61320210  0.74080934  0.19151458    -0.57120
O25         O  0.62004487  0.58718747  0.18655904    -0.57110
O26         O  0.54124509  0.64905244  0.19047899    -0.56280
O27         O  0.95664150  0.51645905  0.21193846    -0.57490
C28         C  0.94502352  0.53359381  0.31038376     0.75140
O29         O  0.00369691  0.63312650  0.26200126    -0.58640
C30         C  0.95642575  0.53910859  0.18710339     0.75110
C31         C  0.87014566  0.61518746  0.24573857     0.77510
Cd32       Cd  0.95128660  0.57619257  0.24999321     1.37460
O33         O  0.94051114  0.51359889  0.28403834    -0.57480
O34         O  0.87557850  0.57569791  0.24527685    -0.56290
C35         C  0.03492818  0.60875183  0.25810380     0.77470
O36         O  0.90301904  0.63795066  0.24840909    -0.58670
O37         O  0.95189313  0.57281815  0.30848313    -0.57120
O38         O  0.95446740  0.57872706  0.19145186    -0.57110
O39         O  0.02696882  0.57170797  0.24807540    -0.56280
O40         O  0.29558137  0.71811490  0.35261271    -0.57490
C41         C  0.29849008  0.58345338  0.34731984     0.75140
O42         O  0.23601507  0.65386831  0.27065966    -0.58640
C43         C  0.29669552  0.74684792  0.33171445     0.75110
C44         C  0.37064771  0.65559683  0.27902839     0.77510
Cd45       Cd  0.29149354  0.66034659  0.31218839     1.37460
O46         O  0.30191110  0.61903610  0.36154488    -0.57480
O47         O  0.36743881  0.66660180  0.30816783    -0.56290
C48         C  0.20640675  0.65183351  0.29101602     0.77470
O49         O  0.33651247  0.64657538  0.26459279    -0.58670
O50         O  0.29189343  0.58412529  0.31744515    -0.57120
O51         O  0.29226879  0.73551922  0.30267798    -0.57110
O52         O  0.21617964  0.65626368  0.32028489    -0.56280
O53         O  0.95583578  0.48116955  0.46062619    -0.57490
C54         C  0.95936553  0.46284990  0.06044325     0.75140
O55         O  0.90599922  0.36122298  0.99981272    -0.58640
C56         C  0.94761151  0.45834735  0.43614702     0.75110
C57         C  0.03926761  0.39028586  0.49106531     0.77510
Cd58       Cd  0.95587547  0.42209879  0.49876606     1.37460
O59         O  0.95462514  0.48383874  0.03501848    -0.57480
O60         O  0.03114623  0.42877493  0.49625327    -0.56290
C61         C  0.87418326  0.38462251  0.00455531     0.77470
O62         O  0.00847194  0.36457684  0.49187047    -0.58670
O63         O  0.96329800  0.42321462  0.05716161    -0.57120
O64         O  0.94239393  0.41937889  0.44098481    -0.57110
O65         O  0.88124095  0.42382050  0.00740964    -0.56280
O66         O  0.62243913  0.38415259  0.11034517    -0.57490
C67         C  0.61264592  0.25369861  0.08274263     0.75140
O68         O  0.57348743  0.34593048  0.01476959    -0.58640
C69         C  0.61900470  0.41842058  0.09516642     0.75110
C70         C  0.70299323  0.34256374  0.03401142     0.77510
Cd71       Cd  0.62038574  0.33879360  0.06139362     1.37470
O72         O  0.61550171  0.28378281  0.10309028    -0.57480
O73         O  0.69687786  0.33895506  0.06381985    -0.56290
C74         C  0.53979556  0.34203476  0.03082302     0.77470
O75         O  0.67056582  0.34293357  0.01631988    -0.58670
O76         O  0.61623233  0.26298903  0.05348442    -0.57120
O77         O  0.61570963  0.41530768  0.06501904    -0.57110
O78         O  0.54377276  0.33738458  0.06074435    -0.56280
O79         O  0.43688082  0.98715406  0.41201456    -0.57490
C80         C  0.42174761  0.00708450  0.31463332     0.75140
O81         O  0.31889055  0.95103385  0.36146199    -0.58640
C82         C  0.41594961  0.99388421  0.43745117     0.75110
C83         C  0.34306356  0.08211597  0.38399232     0.77510
Cd84       Cd  0.37822574  0.00015824  0.37494086     1.37470
O85         O  0.44161876  0.00828185  0.34098456    -0.57480
O86         O  0.38183828  0.07599040  0.37925376    -0.56290
C87         C  0.34126326  0.91842835  0.36531422     0.77470
O88         O  0.31885110  0.05010814  0.38250734    -0.58670
O89         O  0.38218985  0.00344171  0.31646721    -0.57120
O90         O  0.37741814  0.00236021  0.43371496    -0.57110
O91         O  0.37800620  0.92426381  0.37608818    -0.56280
O92         O  0.30915762  0.28377653  0.39793546    -0.57490
C93         C  0.30056980  0.42029426  0.40842135     0.75140
O94         O  0.23995110  0.35059369  0.47938464    -0.58640
C95         C  0.30173951  0.25398765  0.41725998     0.75110
C96         C  0.37484757  0.34053603  0.47189428     0.77510
Cd97       Cd  0.29592204  0.33973983  0.43888979     1.37460
O98         O  0.29511070  0.38658489  0.39196792    -0.57480
O99         O  0.37181962  0.34372712  0.44179003    -0.56290
C100        C  0.21052947  0.34773765  0.45882551     0.77470
O101        O  0.34058169  0.33764364  0.48745600    -0.58670
O102        O  0.30464173  0.41602737  0.43836333    -0.57120
O103        O  0.28914259  0.26442756  0.44500294    -0.57110
O104        O  0.22090625  0.33889855  0.43023151    -0.56280
C105        C  0.33308942  0.18436993  0.43032373    -0.01520
C106        C  0.30953718  0.20917986  0.40894559     0.08160
C107        C  0.29435473  0.19097239  0.38001769    -0.01630
C108        C  0.30369527  0.14855305  0.37216673    -0.01600
C109        C  0.32824439  0.12449563  0.39314820     0.08290
C110        C  0.34230088  0.14223249  0.42240513    -0.01830
Br111      Br  0.37441681  0.10849220  0.45187513    -0.00380
Br112      Br  0.35545699  0.20825365  0.46981423    -0.00450
Br113      Br  0.28446066  0.12380437  0.33222902    -0.00410
Br114      Br  0.25981017  0.22350994  0.35159850    -0.00400
C115        C  0.42442089  0.36524476  0.01530581    -0.01520
C116        C  0.41664598  0.34020244  0.48761965     0.08160
C117        C  0.44964035  0.31601354  0.47405819    -0.01630
C118        C  0.48994286  0.31691596  0.48803051    -0.01640
C119        C  0.49776214  0.34215906  0.01557007     0.08290
C120        C  0.46483676  0.36627655  0.02918520    -0.01830
Br121      Br  0.47542021  0.40285800  0.06587445    -0.00380
Br122      Br  0.38061832  0.40040136  0.03331170    -0.00450
Br123      Br  0.53369252  0.28140939  0.47024806    -0.00410
Br124      Br  0.43971114  0.27975914  0.43704210    -0.00400
C125        C  0.82106873  0.33219738  0.02523832    -0.01520
C126        C  0.83054691  0.36820444  0.00692891     0.08160
C127        C  0.79736577  0.39148001  0.99324360    -0.01630
C128        C  0.75530996  0.38184891  0.00078429    -0.01640
C129        C  0.74601288  0.34789723  0.02116603     0.08290
C130        C  0.77883858  0.32188981  0.03202971    -0.01830
Br131      Br  0.76586655  0.27187110  0.05620619    -0.00380
Br132      Br  0.86539189  0.29851964  0.04325879    -0.00450
Br133      Br  0.71107991  0.41797562  0.98537716    -0.00410
Br134      Br  0.80914846  0.43672873  0.96377340    -0.00400
C135        C  0.10305403  0.34464455  0.49889345    -0.01520
C136        C  0.08246940  0.37735436  0.48259023     0.08160
C137        C  0.10374488  0.39918030  0.45806892    -0.01630
C138        C  0.14511743  0.38836895  0.44985902    -0.01640
C139        C  0.16632222  0.35683618  0.46694435     0.08290
C140        C  0.14517462  0.33473367  0.49131169    -0.01830
Br141      Br  0.17328808  0.28969876  0.01323665    -0.00380
Br142      Br  0.07443653  0.31481009  0.03256459    -0.00450
Br143      Br  0.17282527  0.41788835  0.41539045    -0.00410
Br144      Br  0.07635602  0.44388421  0.43494496    -0.00400
C145        C  0.27982347  0.53674511  0.39342938    -0.01520
C146        C  0.30152203  0.54280883  0.36432352     0.08160
C147        C  0.32455288  0.50906071  0.35054755    -0.01630
C148        C  0.32439135  0.46912797  0.36498483    -0.01640
C149        C  0.30180319  0.46268534  0.39367574     0.08290
C150        C  0.28054010  0.49711386  0.40834337    -0.01830
Br151      Br  0.25069850  0.49044515  0.44839940    -0.00380
Br152      Br  0.24634499  0.58168081  0.41197673    -0.00450
Br153      Br  0.35748666  0.42410103  0.34620238    -0.00410
Br154      Br  0.35829591  0.51775107  0.31257860    -0.00400
C155        C  0.34344604  0.80929539  0.32794379    -0.01520
C156        C  0.30628441  0.79115965  0.34010440     0.08160
C157        C  0.27910030  0.81544906  0.35957730    -0.01630
C158        C  0.28958127  0.85774562  0.36741526    -0.01640
C159        C  0.32731837  0.87552740  0.35577068     0.08290
C160        C  0.35366553  0.85140435  0.33541250    -0.01830
Br161      Br  0.40318134  0.87641240  0.31628908    -0.00380
Br162      Br  0.38177438  0.77582160  0.30214679    -0.00450
Br163      Br  0.25309403  0.89059906  0.39486719    -0.00410
Br164      Br  0.22718978  0.79101926  0.37468440    -0.00400
C165        C  0.92144738  0.53189494  0.36781539    -0.01520
C166        C  0.94307077  0.51257207  0.34190385     0.08160
C167        C  0.96428303  0.47411014  0.34669943    -0.01630
C168        C  0.96455526  0.45561391  0.37722444    -0.01640
C169        C  0.94470663  0.47609889  0.40350598     0.08290
C170        C  0.92245775  0.51386587  0.39848017    -0.01830
Br171      Br  0.89102116  0.53984996  0.43313556    -0.00380
Br172      Br  0.88860011  0.58223890  0.36130467    -0.00450
Br173      Br  0.99389147  0.40288601  0.38274676    -0.00410
Br174      Br  0.99588911  0.44790911  0.31220147    -0.00400
C175        C  0.99122288  0.49356683  0.14546125    -0.01520
C176        C  0.95780966  0.52027278  0.15454238     0.08160
C177        C  0.92544035  0.52884413  0.13248391    -0.01630
C178        C  0.92616544  0.51032665  0.10159743    -0.01640
C179        C  0.95948297  0.48340132  0.09250545     0.08290
C180        C  0.99211606  0.47520921  0.11449627    -0.01830
Br181      Br  0.03916488  0.44039242  0.10184075    -0.00380
Br182      Br  0.03686314  0.48372705  0.17495551    -0.00450
Br183      Br  0.87982616  0.51970514  0.07261147    -0.00410
Br184      Br  0.87868749  0.56410520  0.14516038    -0.00400
C185        C  0.10293572  0.59357458  0.28514702    -0.01520
C186        C  0.07855281  0.62121714  0.26647869     0.08160
C187        C  0.09637095  0.65960454  0.25599273    -0.01630
C188        C  0.13852138  0.66979017  0.26368156    -0.01640
C189        C  0.16278935  0.64165846  0.28175519     0.08290
C190        C  0.14495606  0.60357380  0.29239030    -0.01830
Br191      Br  0.17868874  0.56420063  0.31626298    -0.00380
Br192      Br  0.07846617  0.54288070  0.30284053    -0.00450
Br193      Br  0.16270476  0.72279005  0.25054163    -0.00410
Br194      Br  0.06378627  0.69769108  0.23038522    -0.00400
C195        C  0.59079589  0.50866760  0.15210753    -0.01520
C196        C  0.61671415  0.54145901  0.14046969     0.08160
C197        C  0.64372102  0.53351531  0.11425180    -0.01630
C198        C  0.64491699  0.49306443  0.09983703    -0.01640
C199        C  0.61894495  0.46027237  0.11141740     0.08290
C200        C  0.59189434  0.46822220  0.13761285    -0.01830
Br201      Br  0.55436964  0.42453034  0.15257881    -0.00380
Br202      Br  0.55179859  0.51956012  0.18679666    -0.00450
Br203      Br  0.68409047  0.48227013  0.06524455    -0.00410
Br204      Br  0.68095879  0.57731819  0.09899189    -0.00400
C205        C  0.48806129  0.63998770  0.26563522    -0.01520
C206        C  0.49345442  0.65661934  0.23465865     0.08160
C207        C  0.45794069  0.67137477  0.21775239    -0.01630
C208        C  0.41766231  0.67006230  0.23185205    -0.01640
C209        C  0.41238416  0.65406656  0.26304295     0.08290
C210        C  0.44778235  0.63863806  0.27972022    -0.01830
Br211      Br  0.44138400  0.61358440  0.32150395    -0.00380
Br212      Br  0.53538726  0.61699754  0.28856790    -0.00450
Br213      Br  0.37037761  0.69296316  0.20881418    -0.00410
Br214      Br  0.46418698  0.69623976  0.17589344    -0.00400
C215        C  0.79331822  0.61320048  0.25864897    -0.01520
C216        C  0.82722264  0.63273123  0.24255024     0.08160
C217        C  0.81900366  0.66543170  0.22080859    -0.01630
C218        C  0.77716253  0.67649399  0.21374003    -0.01640
C219        C  0.74323792  0.65416141  0.22759126     0.08290
C220        C  0.75152381  0.62325528  0.25080076    -0.01830
Br221      Br  0.70618323  0.59123313  0.26979391    -0.00380
Br222      Br  0.80387543  0.57231371  0.29167245    -0.00450
Br223      Br  0.76654432  0.72246904  0.18491372    -0.00410
Br224      Br  0.86450001  0.69281327  0.19830845    -0.00400
C225        C  0.43105793  0.97718655  0.02719386    -0.01520
C226        C  0.47195243  0.99369213  0.03199666     0.08160
C227        C  0.49453341  0.00986916  0.50560670    -0.01630
C228        C  0.47644550  0.00953064  0.47476830    -0.01640
C229        C  0.43552293  0.99285517  0.46984786     0.08290
C230        C  0.41296970  0.97660859  0.99629767    -0.01830
Br231      Br  0.35789879  0.95136324  0.99047244    -0.00380
Br232      Br  0.40021769  0.95331650  0.06261076    -0.00450
Br233      Br  0.50746274  0.03471451  0.43989641    -0.00410
Br234      Br  0.54959442  0.03524595  0.51163321    -0.00400
C235        C  0.49640810  0.98244349  0.24568770    -0.01520
C236        C  0.47947568  0.00749619  0.22116008     0.08160
C237        C  0.44509704  0.03414001  0.22792370    -0.01630
C238        C  0.42703432  0.03493583  0.25876644    -0.01640
C239        C  0.44323282  0.00905932  0.28313285     0.08290
C240        C  0.47850136  0.98335730  0.27660117    -0.01830
Br241      Br  0.50111466  0.94720382  0.30923701    -0.00380
Br242      Br  0.54238312  0.94440693  0.23650919    -0.00450
Br243      Br  0.38126404  0.07324383  0.26783242    -0.00410
Br244      Br  0.42376089  0.07111615  0.19532488    -0.00400
C245        C  0.57339767  0.79852676  0.12731166    -0.01520
C246        C  0.60605799  0.79009096  0.14915225     0.08160
C247        C  0.63062679  0.82380085  0.16164749    -0.01630
C248        C  0.62033985  0.86589406  0.15460052    -0.01640
C249        C  0.58584328  0.87445680  0.13440802     0.08290
C250        C  0.56380060  0.84049330  0.11957534    -0.01830
Br251      Br  0.52030523  0.85112011  0.08829659    -0.00380
Br252      Br  0.53887404  0.75314014  0.11011643    -0.00450
Br253      Br  0.65171261  0.91135345  0.17489575    -0.00410
Br254      Br  0.67862898  0.81233152  0.18851057    -0.00400
C255        C  0.62002917  0.14380089  0.11780539    -0.01520
C256        C  0.58147982  0.12603870  0.10722922     0.08160
C257        C  0.55397008  0.15031458  0.08835516    -0.01630
C258        C  0.56413670  0.19228573  0.08118424    -0.01640
C259        C  0.60235564  0.21012852  0.09195982     0.08290
C260        C  0.63044455  0.18587200  0.11010324    -0.01830
Br261      Br  0.68358707  0.20999814  0.12343686    -0.00380
Br262      Br  0.65796531  0.11131744  0.14362235    -0.00450
Br263      Br  0.52461247  0.22600422  0.05743824    -0.00410
Br264      Br  0.50304221  0.12577337  0.07044548    -0.00400
O265        O  0.47166857  0.00566265  0.58937037    -0.57490
C266        C  0.49758042  0.00561354  0.68848240     0.75140
O267        O  0.59329815  0.95003813  0.62728361    -0.58640
C268        C  0.49145019  0.99417921  0.56435073     0.75110
C269        C  0.56828740  0.08288431  0.61616713     0.77510
Cd270      Cd  0.53344236  0.00026553  0.62552649     1.37470
O271        O  0.47474246  0.99949139  0.66386457    -0.57480
O272        O  0.53137308  0.07624124  0.62615502    -0.56290
C273        C  0.56965672  0.91803538  0.63125288     0.77470
O274        O  0.59174447  0.05078172  0.61290344    -0.58670
O275        O  0.53676786  0.00976838  0.68379703    -0.57120
O276        O  0.52940474  0.98382332  0.56825190    -0.57110
O277        O  0.53055789  0.92492778  0.63280759    -0.56280
O278        O  0.61312930  0.61742865  0.64078786    -0.57490
C279        C  0.61146049  0.74696531  0.66167946     0.75140
O280        O  0.56849726  0.66955079  0.73527131    -0.58640
C281        C  0.61654599  0.58349665  0.65640854     0.75110
C282        C  0.69992267  0.65975430  0.71519281     0.77510
Cd283      Cd  0.61660576  0.66396648  0.68860311     1.37470
O284        O  0.61321367  0.71443893  0.64364961    -0.57480
O285        O  0.69306605  0.66172966  0.68538813    -0.56290
C286        C  0.53586749  0.65837384  0.71974702     0.77470
O287        O  0.66787582  0.66125253  0.73329725    -0.58670
O288        O  0.61320208  0.74080934  0.69151458    -0.57120
O289        O  0.62004491  0.58718747  0.68655902    -0.57110
O290        O  0.54124508  0.64905244  0.69047899    -0.56280
O291        O  0.95664150  0.51645906  0.71193846    -0.57490
C292        C  0.94502351  0.53359381  0.81038375     0.75140
O293        O  0.00369691  0.63312650  0.76200127    -0.58640
C294        C  0.95642576  0.53910860  0.68710339     0.75110
C295        C  0.87014565  0.61518746  0.74573857     0.77510
Cd296      Cd  0.95128660  0.57619258  0.74999321     1.37460
O297        O  0.94051113  0.51359890  0.78403834    -0.57480
O298        O  0.87557850  0.57569791  0.74527684    -0.56290
C299        C  0.03492818  0.60875184  0.75810380     0.77470
O300        O  0.90301903  0.63795067  0.74840910    -0.58670
O301        O  0.95189312  0.57281815  0.80848313    -0.57120
O302        O  0.95446740  0.57872707  0.69145186    -0.57110
O303        O  0.02696882  0.57170798  0.74807539    -0.56280
O304        O  0.29558138  0.71811489  0.85261270    -0.57490
C305        C  0.29849008  0.58345337  0.84731984     0.75140
O306        O  0.23601508  0.65386830  0.77065966    -0.58640
C307        C  0.29669553  0.74684791  0.83171444     0.75110
C308        C  0.37064771  0.65559682  0.77902838     0.77510
Cd309      Cd  0.29149354  0.66034658  0.81218838     1.37460
O310        O  0.30191110  0.61903609  0.86154488    -0.57480
O311        O  0.36743882  0.66660179  0.80816783    -0.56290
C312        C  0.20640675  0.65183350  0.79101602     0.77470
O313        O  0.33651247  0.64657537  0.76459279    -0.58670
O314        O  0.29189343  0.58412528  0.81744514    -0.57120
O315        O  0.29226879  0.73551921  0.80267797    -0.57110
O316        O  0.21617965  0.65626367  0.82028489    -0.56280
O317        O  0.95583576  0.48116955  0.96062619    -0.57490
C318        C  0.95936554  0.46284991  0.56044325     0.75140
O319        O  0.90599924  0.36122298  0.49981272    -0.58640
C320        C  0.94761149  0.45834734  0.93614701     0.75110
C321        C  0.03926759  0.39028585  0.99106530     0.77510
Cd322      Cd  0.95587546  0.42209879  0.99876605     1.37460
O323        O  0.95462515  0.48383875  0.53501849    -0.57480
O324        O  0.03114621  0.42877492  0.99625327    -0.56290
C325        C  0.87418328  0.38462251  0.50455531     0.77470
O326        O  0.00847192  0.36457684  0.99187047    -0.58670
O327        O  0.96329802  0.42321463  0.55716162    -0.57120
O328        O  0.94239391  0.41937889  0.94098481    -0.57110
O329        O  0.88124096  0.42382049  0.50740964    -0.56280
O330        O  0.62243918  0.38415260  0.61034515    -0.57490
C331        C  0.61264593  0.25369861  0.58274262     0.75140
O332        O  0.57348745  0.34593047  0.51476958    -0.58640
C333        C  0.61900470  0.41842058  0.59516640     0.75110
C334        C  0.70299325  0.34256374  0.53401141     0.77510
Cd335      Cd  0.62038575  0.33879360  0.56139361     1.37470
O336        O  0.61550171  0.28378281  0.60309027    -0.57480
O337        O  0.69687788  0.33895506  0.56381983    -0.56290
C338        C  0.53979558  0.34203475  0.53082301     0.77470
O339        O  0.67056584  0.34293356  0.51631986    -0.58670
O340        O  0.61623235  0.26298903  0.55348441    -0.57120
O341        O  0.61570959  0.41530767  0.56501902    -0.57110
O342        O  0.54377278  0.33738456  0.56074434    -0.56280
O343        O  0.43688082  0.98715404  0.91201456    -0.57490
C344        C  0.42174762  0.00708450  0.81463332     0.75140
O345        O  0.31889055  0.95103384  0.86146199    -0.58640
C346        C  0.41594961  0.99388419  0.93745117     0.75110
C347        C  0.34306357  0.08211596  0.88399232     0.77510
Cd348      Cd  0.37822574  0.00015822  0.87494086     1.37470
O349        O  0.44161877  0.00828184  0.84098456    -0.57480
O350        O  0.38183828  0.07599039  0.87925376    -0.56290
C351        C  0.34126327  0.91842834  0.86531421     0.77470
O352        O  0.31885111  0.05010813  0.88250734    -0.58670
O353        O  0.38218985  0.00344171  0.81646721    -0.57120
O354        O  0.37741814  0.00236020  0.93371496    -0.57110
O355        O  0.37800621  0.92426380  0.87608816    -0.56280
O356        O  0.30915761  0.28377652  0.89793546    -0.57490
C357        C  0.30056979  0.42029425  0.90842135     0.75140
O358        O  0.23995108  0.35059368  0.97938464    -0.58640
C359        C  0.30173951  0.25398763  0.91725998     0.75110
C360        C  0.37484756  0.34053603  0.97189429     0.77510
Cd361      Cd  0.29592202  0.33973982  0.93888979     1.37460
O362        O  0.29511069  0.38658487  0.89196792    -0.57480
O363        O  0.37181961  0.34372711  0.94179004    -0.56290
C364        C  0.21052945  0.34773764  0.95882551     0.77470
O365        O  0.34058168  0.33764363  0.98745601    -0.58670
O366        O  0.30464172  0.41602736  0.93836333    -0.57120
O367        O  0.28914259  0.26442754  0.94500294    -0.57110
O368        O  0.22090624  0.33889854  0.93023151    -0.56280
C369        C  0.33308942  0.18436992  0.93032373    -0.01520
C370        C  0.30953719  0.20917985  0.90894559     0.08160
C371        C  0.29435473  0.19097237  0.88001769    -0.01630
C372        C  0.30369528  0.14855304  0.87216673    -0.01600
C373        C  0.32824440  0.12449562  0.89314820     0.08290
C374        C  0.34230089  0.14223248  0.92240513    -0.01830
Br375      Br  0.37441682  0.10849220  0.95187513    -0.00380
Br376      Br  0.35545699  0.20825364  0.96981423    -0.00450
Br377      Br  0.28446067  0.12380436  0.83222902    -0.00410
Br378      Br  0.25981017  0.22350992  0.85159850    -0.00400
C379        C  0.42442091  0.36524476  0.51530580    -0.01520
C380        C  0.41664596  0.34020244  0.98761966     0.08160
C381        C  0.44964034  0.31601354  0.97405820    -0.01630
C382        C  0.48994285  0.31691597  0.98803052    -0.01640
C383        C  0.49776216  0.34215905  0.51557006     0.08290
C384        C  0.46483678  0.36627654  0.52918519    -0.01830
Br385      Br  0.47542023  0.40285799  0.56587444    -0.00380
Br386      Br  0.38061834  0.40040136  0.53331169    -0.00450
Br387      Br  0.53369251  0.28140940  0.97024808    -0.00410
Br388      Br  0.43971113  0.27975914  0.93704212    -0.00400
C389        C  0.82106875  0.33219738  0.52523832    -0.01520
C390        C  0.83054693  0.36820444  0.50692890     0.08160
C391        C  0.79736579  0.39148001  0.49324359    -0.01630
C392        C  0.75530998  0.38184890  0.50078427    -0.01640
C393        C  0.74601290  0.34789723  0.52116602     0.08290
C394        C  0.77883859  0.32188981  0.53202970    -0.01830
Br395      Br  0.76586656  0.27187110  0.55620619    -0.00380
Br396      Br  0.86539190  0.29851964  0.54325879    -0.00450
Br397      Br  0.71107993  0.41797560  0.48537714    -0.00410
Br398      Br  0.80914848  0.43672872  0.46377339    -0.00400
C399        C  0.10305401  0.34464454  0.99889344    -0.01520
C400        C  0.08246938  0.37735435  0.98259023     0.08160
C401        C  0.10374486  0.39918029  0.95806891    -0.01630
C402        C  0.14511742  0.38836894  0.94985902    -0.01640
C403        C  0.16632221  0.35683616  0.96694435     0.08290
C404        C  0.14517460  0.33473366  0.99131168    -0.01830
Br405      Br  0.17328811  0.28969878  0.51323666    -0.00380
Br406      Br  0.07443655  0.31481010  0.53256460    -0.00450
Br407      Br  0.17282526  0.41788835  0.91539045    -0.00410
Br408      Br  0.07635601  0.44388421  0.93494496    -0.00400
C409        C  0.27982347  0.53674510  0.89342937    -0.01520
C410        C  0.30152203  0.54280882  0.86432352     0.08160
C411        C  0.32455287  0.50906069  0.85054755    -0.01630
C412        C  0.32439134  0.46912795  0.86498483    -0.01640
C413        C  0.30180318  0.46268533  0.89367574     0.08290
C414        C  0.28054009  0.49711385  0.90834337    -0.01830
Br415      Br  0.25069850  0.49044515  0.94839940    -0.00380
Br416      Br  0.24634499  0.58168080  0.91197673    -0.00450
Br417      Br  0.35748665  0.42410101  0.84620238    -0.00410
Br418      Br  0.35829591  0.51775105  0.81257860    -0.00400
C419        C  0.34344603  0.80929539  0.82794377    -0.01520
C420        C  0.30628441  0.79115965  0.84010439     0.08160
C421        C  0.27910030  0.81544905  0.85957730    -0.01630
C422        C  0.28958128  0.85774561  0.86741526    -0.01640
C423        C  0.32731837  0.87552739  0.85577067     0.08290
C424        C  0.35366552  0.85140435  0.83541247    -0.01830
Br425      Br  0.40318130  0.87641241  0.81628903    -0.00380
Br426      Br  0.38177436  0.77582161  0.80214674    -0.00450
Br427      Br  0.25309405  0.89059904  0.89486720    -0.00410
Br428      Br  0.22718980  0.79101924  0.87468441    -0.00400
C429        C  0.92144735  0.53189493  0.86781538    -0.01520
C430        C  0.94307075  0.51257207  0.84190384     0.08160
C431        C  0.96428302  0.47411014  0.84669943    -0.01630
C432        C  0.96455525  0.45561391  0.87722443    -0.01640
C433        C  0.94470661  0.47609889  0.90350598     0.08290
C434        C  0.92245773  0.51386586  0.89848016    -0.01830
Br435      Br  0.89102113  0.53984995  0.93313555    -0.00380
Br436      Br  0.88860007  0.58223889  0.86130466    -0.00450
Br437      Br  0.99389147  0.40288601  0.88274676    -0.00410
Br438      Br  0.99588911  0.44790912  0.81220147    -0.00400
C439        C  0.99122289  0.49356686  0.64546125    -0.01520
C440        C  0.95780967  0.52027280  0.65454238     0.08160
C441        C  0.92544035  0.52884413  0.63248391    -0.01630
C442        C  0.92616544  0.51032665  0.60159744    -0.01640
C443        C  0.95948298  0.48340133  0.59250545     0.08290
C444        C  0.99211607  0.47520924  0.61449627    -0.01830
Br445      Br  0.03916491  0.44039245  0.60184075    -0.00380
Br446      Br  0.03686317  0.48372710  0.67495550    -0.00450
Br447      Br  0.87982615  0.51970512  0.57261148    -0.00410
Br448      Br  0.87868748  0.56410519  0.64516039    -0.00400
C449        C  0.10293573  0.59357456  0.78514700    -0.01520
C450        C  0.07855281  0.62121714  0.76647869     0.08160
C451        C  0.09637094  0.65960455  0.75599275    -0.01630
C452        C  0.13852138  0.66979017  0.76368157    -0.01640
C453        C  0.16278936  0.64165846  0.78175519     0.08290
C454        C  0.14495607  0.60357378  0.79239028    -0.01830
Br455      Br  0.17868876  0.56420060  0.81626294    -0.00380
Br456      Br  0.07846619  0.54288067  0.80284049    -0.00450
Br457      Br  0.16270476  0.72279007  0.75054166    -0.00410
Br458      Br  0.06378626  0.69769111  0.73038525    -0.00400
C459        C  0.59079594  0.50866758  0.65210754    -0.01520
C460        C  0.61671414  0.54145901  0.64046967     0.08160
C461        C  0.64372095  0.53351534  0.61425173    -0.01630
C462        C  0.64491693  0.49306446  0.59983697    -0.01640
C463        C  0.61894495  0.46027238  0.61141737     0.08290
C464        C  0.59189439  0.46822218  0.63761287    -0.01830
Br465      Br  0.55436977  0.42453029  0.65257888    -0.00380
Br466      Br  0.55179871  0.51956006  0.68679672    -0.00450
Br467      Br  0.68409033  0.48227020  0.56524443    -0.00410
Br468      Br  0.68095864  0.57731825  0.59899177    -0.00400
C469        C  0.48806129  0.63998768  0.76563521    -0.01520
C470        C  0.49345442  0.65661933  0.73465865     0.08160
C471        C  0.45794070  0.67137478  0.71775239    -0.01630
C472        C  0.41766231  0.67006230  0.73185205    -0.01640
C473        C  0.41238416  0.65406655  0.76304295     0.08290
C474        C  0.44778235  0.63863804  0.77972021    -0.01830
Br475      Br  0.44138400  0.61358437  0.82150394    -0.00380
Br476      Br  0.53538726  0.61699751  0.78856789    -0.00450
Br477      Br  0.37037761  0.69296318  0.70881419    -0.00410
Br478      Br  0.46418699  0.69623979  0.67589345    -0.00400
C479        C  0.79331822  0.61320047  0.75864896    -0.01520
C480        C  0.82722263  0.63273123  0.74255023     0.08160
C481        C  0.81900365  0.66543171  0.72080859    -0.01630
C482        C  0.77716252  0.67649400  0.71374003    -0.01640
C483        C  0.74323791  0.65416141  0.72759125     0.08290
C484        C  0.75152380  0.62325527  0.75080074    -0.01830
Br485      Br  0.70618322  0.59123310  0.76979387    -0.00380
Br486      Br  0.80387542  0.57231368  0.79167242    -0.00450
Br487      Br  0.76654431  0.72246906  0.68491374    -0.00410
Br488      Br  0.86450001  0.69281330  0.69830846    -0.00400
C489        C  0.43105794  0.97718656  0.52719385    -0.01520
C490        C  0.47195243  0.99369215  0.53199666     0.08160
C491        C  0.49453341  0.00986913  0.00560670    -0.01630
C492        C  0.47644551  0.00953061  0.97476830    -0.01640
C493        C  0.43552293  0.99285515  0.96984786     0.08290
C494        C  0.41296970  0.97660860  0.49629767    -0.01830
Br495      Br  0.35789879  0.95136324  0.49047244    -0.00380
Br496      Br  0.40021770  0.95331649  0.56261075    -0.00450
Br497      Br  0.50746276  0.03471447  0.93989640    -0.00410
Br498      Br  0.54959443  0.03524592  0.01163321    -0.00400
C499        C  0.49640810  0.98244349  0.74568770    -0.01520
C500        C  0.47947569  0.00749619  0.72116008     0.08160
C501        C  0.44509704  0.03414000  0.72792370    -0.01630
C502        C  0.42703432  0.03493583  0.75876644    -0.01640
C503        C  0.44323282  0.00905932  0.78313285     0.08290
C504        C  0.47850136  0.98335730  0.77660117    -0.01830
Br505      Br  0.50111466  0.94720382  0.80923701    -0.00380
Br506      Br  0.54238313  0.94440694  0.73650919    -0.00450
Br507      Br  0.38126404  0.07324382  0.76783242    -0.00410
Br508      Br  0.42376089  0.07111614  0.69532487    -0.00400
C509        C  0.57339769  0.79852676  0.62731165    -0.01520
C510        C  0.60605799  0.79009096  0.64915225     0.08160
C511        C  0.63062679  0.82380086  0.66164749    -0.01630
C512        C  0.62033985  0.86589406  0.65460053    -0.01640
C513        C  0.58584328  0.87445680  0.63440801     0.08290
C514        C  0.56380062  0.84049331  0.61957533    -0.01830
Br515      Br  0.52030526  0.85112012  0.58829657    -0.00380
Br516      Br  0.53887407  0.75314014  0.61011640    -0.00450
Br517      Br  0.65171260  0.91135345  0.67489576    -0.00410
Br518      Br  0.67862896  0.81233152  0.68851059    -0.00400
C519        C  0.62002917  0.14380090  0.61780539    -0.01520
C520        C  0.58147982  0.12603870  0.60722922     0.08160
C521        C  0.55397009  0.15031458  0.58835514    -0.01630
C522        C  0.56413672  0.19228572  0.58118422    -0.01640
C523        C  0.60235565  0.21012852  0.59195982     0.08290
C524        C  0.63044456  0.18587201  0.61010324    -0.01830
Br525      Br  0.68358707  0.20999814  0.62343687    -0.00380
Br526      Br  0.65796530  0.11131745  0.64362237    -0.00450
Br527      Br  0.52461249  0.22600421  0.55743822    -0.00410
Br528      Br  0.50304223  0.12577336  0.57044546    -0.00400
loop_ 
_geom_bond_atom_site_label_1 
_geom_bond_atom_site_label_2 
_geom_bond_distance 
_geom_bond_site_symmetry_2 
_ccdc_geom_bond_type 
O1            C4   1.268   1_545  A
O1           Cd6   2.484       .  S
C2           O11   1.267       .  A
C2            O7   1.269   1_545  A
C2          C236   1.480       .  S
O3            C9   1.271       .  A
O3           Cd6   2.488   1_565  S
C4           O12   1.263       .  A
C4          C226   1.485       .  S
C5           O10   1.270       .  A
C5            O8   1.262       .  A
C5          C256   1.480       .  S
Cd6          O13   2.410   1_545  S
Cd6          O12   2.440   1_545  S
Cd6          O11   2.446       .  S
Cd6           O7   2.457   1_545  S
Cd6          O10   2.502       .  S
Cd6           O8   2.407       .  S
C9           O13   1.264       .  A
C9          C249   1.483       .  S
O14          C17   1.270       .  A
O14         Cd19   2.464       .  S
C15          O24   1.263       .  A
C15          O20   1.268       .  A
C15         C246   1.480       .  S
O16          C22   1.268       .  A
O16         Cd19   2.480       .  S
C17          O25   1.266       .  A
C17         C196   1.479       .  S
C18          O23   1.268       .  A
C18          O21   1.264       .  A
C18         C219   1.483       .  S
Cd19         O26   2.440       .  S
Cd19         O25   2.435       .  S
Cd19         O24   2.437       .  S
Cd19         O20   2.484       .  S
Cd19         O23   2.478       .  S
Cd19         O21   2.435       .  S
C22          O26   1.263       .  A
C22         C206   1.486       .  S
O27          C30   1.268       .  A
O27         Cd32   2.458       .  S
C28          O37   1.263       .  A
C28          O33   1.268       .  A
C28         C166   1.483       .  S
O29          C35   1.270       .  A
O29         Cd32   2.493   1_455  S
C30          O38   1.267       .  A
C30         C176   1.476       .  S
C31          O36   1.270       .  A
C31          O34   1.263       .  A
C31         C216   1.483       .  S
Cd32         O39   2.412   1_655  S
Cd32         O38   2.446       .  S
Cd32         O37   2.443       .  S
Cd32         O33   2.477       .  S
Cd32         O36   2.494       .  S
Cd32         O34   2.414       .  S
C35          O39   1.264       .  A
C35         C186   1.480       .  S
O40          C43   1.269       .  A
O40         Cd45   2.472       .  S
C41          O50   1.264       .  A
C41          O46   1.270       .  A
C41         C146   1.482       .  S
O42          C48   1.269       .  A
O42         Cd45   2.477       .  S
C43          O51   1.265       .  A
C43         C156   1.471       .  S
C44          O49   1.270       .  A
C44          O47   1.263       .  A
C44         C209   1.485       .  S
Cd45         O52   2.420       .  S
Cd45         O51   2.419       .  S
Cd45         O50   2.427       .  S
Cd45         O46   2.478       .  S
Cd45         O49   2.481       .  S
Cd45         O47   2.427       .  S
C48          O52   1.265       .  A
C48         C189   1.472       .  S
O53          C56   1.268       .  A
O53         Cd58   2.473       .  S
C54          O63   1.267       .  A
C54          O59   1.269       .  A
C54         C179   1.478       .  S
O55          C61   1.271   1_556  A
O55        Cd322   2.490       .  S
C56          O64   1.263       .  A
C56         C169   1.483       .  S
C57          O62   1.270       .  A
C57          O60   1.263       .  A
C57         C136   1.477       .  S
Cd58         O64   2.447       .  S
Cd58         O62   2.493   1_655  S
Cd58         O60   2.403   1_655  S
Cd58        O319   2.490       .  S
Cd58        O329   2.400       .  S
Cd58        O327   2.446       .  S
Cd58        O323   2.454       .  S
O59        Cd322   2.454   1_554  S
C61          O65   1.264       .  A
C61         C126   1.482       .  S
O63        Cd322   2.446   1_554  S
O65        Cd322   2.400   1_554  S
O66          C69   1.269       .  A
O66         Cd71   2.479       .  S
C67          O76   1.264       .  A
C67          O72   1.269       .  A
C67         C259   1.473       .  S
O68          C74   1.269       .  A
O68         Cd71   2.464       .  S
C69          O77   1.264       .  A
C69         C199   1.480       .  S
C70          O75   1.268       .  A
C70          O73   1.265       .  A
C70         C129   1.478       .  S
Cd71         O78   2.435       .  S
Cd71         O77   2.431       .  S
Cd71         O76   2.421       .  S
Cd71         O72   2.483       .  S
Cd71         O75   2.469       .  S
Cd71         O73   2.433       .  S
C74          O78   1.265       .  A
C74         C119   1.480       .  S
O79          C82   1.268       .  A
O79         Cd84   2.462   1_565  S
C80          O89   1.264       .  A
C80          O85   1.267       .  A
C80         C239   1.482       .  S
O81          C87   1.269       .  A
O81         Cd84   2.497   1_565  S
C82          O90   1.265   1_565  A
C82         C229   1.488       .  S
C83          O88   1.270       .  A
C83          O86   1.264       .  A
C83         C109   1.470       .  S
Cd84         O91   2.404   1_545  S
Cd84         O90   2.451       .  S
Cd84         O89   2.445       .  S
Cd84         O85   2.477       .  S
Cd84         O88   2.486       .  S
Cd84         O86   2.407       .  S
C87          O91   1.263       .  A
C87         C159   1.476       .  S
O92          C95   1.271       .  A
O92         Cd97   2.480       .  S
C93         O102   1.265       .  A
C93          O98   1.271       .  A
C93         C149   1.485       .  S
O94         C100   1.271       .  A
O94         Cd97   2.475       .  S
C95         O103   1.264       .  A
C95         C106   1.478       .  S
C96         O101   1.271       .  A
C96          O99   1.265       .  A
C96         C116   1.482       .  S
Cd97        O104   2.411       .  S
Cd97        O103   2.410       .  S
Cd97        O102   2.430       .  S
Cd97         O98   2.473       .  S
Cd97        O101   2.475       .  S
Cd97         O99   2.418       .  S
C100        O104   1.265       .  A
C100        C139   1.474       .  S
C105        C106   1.414       .  A
C105        C110   1.402       .  A
C105       Br112   1.936       .  S
C106        C107   1.413       .  A
C107        C108   1.411       .  A
C107       Br114   1.929       .  S
C108        C109   1.408       .  A
C108       Br113   1.928       .  S
C109        C110   1.407       .  A
C110       Br111   1.935       .  S
C115        C120   1.409       .  A
C115        C380   1.412   1_554  A
C115       Br122   1.932       .  S
C116        C117   1.415       .  A
C116        C379   1.412       .  A
C117        C118   1.407       .  A
C117       Br124   1.935       .  S
C118        C383   1.411       .  A
C118       Br123   1.934       .  S
C119        C120   1.413       .  A
C119        C382   1.411   1_554  A
C120       Br121   1.934       .  S
C125        C126   1.413       .  A
C125        C130   1.409       .  A
C125       Br132   1.931       .  S
C126        C127   1.415   1_554  A
C127        C128   1.406   1_556  A
C127       Br134   1.936       .  S
C128        C129   1.410       .  A
C128       Br133   1.933   1_554  S
C129        C130   1.412       .  A
C130       Br131   1.932       .  S
C135        C136   1.411       .  A
C135        C140   1.412       .  A
C135       Br406   1.929       .  S
C136        C137   1.413       .  A
C137        C138   1.402       .  A
C137       Br144   1.935       .  S
C138        C139   1.410       .  A
C138       Br143   1.935       .  S
C139        C140   1.410       .  A
C140       Br405   1.929       .  S
Br141       C404   1.929   1_554  S
Br142       C399   1.929   1_554  S
C145        C146   1.411       .  A
C145        C150   1.409       .  A
C145       Br152   1.934       .  S
C146        C147   1.414       .  A
C147        C148   1.408       .  A
C147       Br154   1.934       .  S
C148        C149   1.412       .  A
C148       Br153   1.933       .  S
C149        C150   1.417       .  A
C150       Br151   1.934       .  S
C155        C156   1.408       .  A
C155        C160   1.401       .  A
C155       Br162   1.935       .  S
C156        C157   1.409       .  A
C157        C158   1.412       .  A
C157       Br164   1.928       .  S
C158        C159   1.411       .  A
C158       Br163   1.928       .  S
C159        C160   1.412       .  A
C160       Br161   1.935       .  S
C165        C166   1.414       .  A
C165        C170   1.408       .  A
C165       Br172   1.933       .  S
C166        C167   1.412       .  A
C167        C168   1.409       .  A
C167       Br174   1.934       .  S
C168        C169   1.415       .  A
C168       Br173   1.934       .  S
C169        C170   1.411       .  A
C170       Br171   1.933       .  S
C175        C176   1.410       .  A
C175        C180   1.409       .  A
C175       Br182   1.932   1_655  S
C176        C177   1.410       .  A
C177        C178   1.407       .  A
C177       Br184   1.933       .  S
C178        C179   1.412       .  A
C178       Br183   1.932       .  S
C179        C180   1.412       .  A
C180       Br181   1.932   1_655  S
C185        C186   1.414       .  A
C185        C190   1.403       .  A
C185       Br192   1.936       .  S
C186        C187   1.413       .  A
C187        C188   1.412       .  A
C187       Br194   1.929       .  S
C188        C189   1.409       .  A
C188       Br193   1.929       .  S
C189        C190   1.407       .  A
C190       Br191   1.936       .  S
C195        C196   1.413       .  A
C195        C200   1.409       .  A
C195       Br202   1.933       .  S
C196        C197   1.410       .  A
C197        C198   1.408       .  A
C197       Br204   1.933       .  S
C198        C199   1.413       .  A
C198       Br203   1.933       .  S
C199        C200   1.411       .  A
C200       Br201   1.932       .  S
C205        C206   1.412       .  A
C205        C210   1.409       .  A
C205       Br212   1.934       .  S
C206        C207   1.416       .  A
C207        C208   1.409       .  A
C207       Br214   1.935       .  S
C208        C209   1.412       .  A
C208       Br213   1.934       .  S
C209        C210   1.416       .  A
C210       Br211   1.935       .  S
C215        C216   1.414       .  A
C215        C220   1.407       .  A
C215       Br222   1.935       .  S
C216        C217   1.412       .  A
C217        C218   1.409       .  A
C217       Br224   1.932       .  S
C218        C219   1.414       .  A
C218       Br223   1.933       .  S
C219        C220   1.412       .  A
C220       Br221   1.934       .  S
C225        C226   1.411       .  A
C225        C230   1.411   1_554  A
C225       Br232   1.933       .  S
C226        C491   1.414   1_565  A
C227        C228   1.408       .  A
C227        C490   1.414   1_545  A
C227       Br234   1.936       .  S
C228        C229   1.415   1_545  A
C228       Br233   1.936       .  S
C229        C494   1.417       .  A
C230        C493   1.417       .  A
C230       Br231   1.934       .  S
C235        C236   1.412   1_565  A
C235        C240   1.409       .  A
C235       Br242   1.934       .  S
C236        C237   1.410       .  A
C237        C238   1.408       .  A
C237       Br244   1.933       .  S
C238        C239   1.414       .  A
C238       Br243   1.933       .  S
C239        C240   1.413   1_545  A
C240       Br241   1.933       .  S
C245        C246   1.410       .  A
C245        C250   1.407       .  A
C245       Br252   1.933       .  S
C246        C247   1.412       .  A
C247        C248   1.409       .  A
C247       Br254   1.932       .  S
C248        C249   1.412       .  A
C248       Br253   1.931       .  S
C249        C250   1.415       .  A
C250       Br251   1.935       .  S
C255        C256   1.413       .  A
C255        C260   1.412       .  A
C255       Br262   1.928       .  S
C256        C257   1.414       .  A
C257        C258   1.402       .  A
C257       Br264   1.937       .  S
C258        C259   1.408       .  A
C258       Br263   1.935       .  S
C259        C260   1.409       .  A
C260       Br261   1.928       .  S
O265        C268   1.268   1_545  A
O265       Cd270   2.484       .  S
C266        O275   1.267       .  A
C266        O271   1.269   1_545  A
C266        C500   1.480       .  S
O267        C273   1.271       .  A
O267       Cd270   2.488   1_565  S
C268        O276   1.263       .  A
C268        C490   1.485       .  S
C269        O274   1.270       .  A
C269        O272   1.262       .  A
C269        C520   1.480       .  S
Cd270       O277   2.410   1_545  S
Cd270       O276   2.440   1_545  S
Cd270       O275   2.446       .  S
Cd270       O271   2.457   1_545  S
Cd270       O274   2.502       .  S
Cd270       O272   2.407       .  S
C273        O277   1.264       .  A
C273        C513   1.483       .  S
O278        C281   1.270       .  A
O278       Cd283   2.464       .  S
C279        O288   1.263       .  A
C279        O284   1.268       .  A
C279        C510   1.480       .  S
O280        C286   1.268       .  A
O280       Cd283   2.480       .  S
C281        O289   1.266       .  A
C281        C460   1.479       .  S
C282        O287   1.268       .  A
C282        O285   1.264       .  A
C282        C483   1.483       .  S
Cd283       O290   2.440       .  S
Cd283       O289   2.435       .  S
Cd283       O288   2.437       .  S
Cd283       O284   2.484       .  S
Cd283       O287   2.478       .  S
Cd283       O285   2.435       .  S
C286        O290   1.263       .  A
C286        C470   1.486       .  S
O291        C294   1.268       .  A
O291       Cd296   2.458       .  S
C292        O301   1.263       .  A
C292        O297   1.268       .  A
C292        C430   1.483       .  S
O293        C299   1.270       .  A
O293       Cd296   2.493   1_455  S
C294        O302   1.267       .  A
C294        C440   1.476       .  S
C295        O300   1.270       .  A
C295        O298   1.263       .  A
C295        C480   1.483       .  S
Cd296       O303   2.412   1_655  S
Cd296       O302   2.446       .  S
Cd296       O301   2.443       .  S
Cd296       O297   2.477       .  S
Cd296       O300   2.494       .  S
Cd296       O298   2.414       .  S
C299        O303   1.264       .  A
C299        C450   1.480       .  S
O304        C307   1.269       .  A
O304       Cd309   2.472       .  S
C305        O314   1.264       .  A
C305        O310   1.270       .  A
C305        C410   1.482       .  S
O306        C312   1.269       .  A
O306       Cd309   2.477       .  S
C307        O315   1.265       .  A
C307        C420   1.471       .  S
C308        O313   1.270       .  A
C308        O311   1.263       .  A
C308        C473   1.485       .  S
Cd309       O316   2.420       .  S
Cd309       O315   2.419       .  S
Cd309       O314   2.427       .  S
Cd309       O310   2.478       .  S
Cd309       O313   2.481       .  S
Cd309       O311   2.427       .  S
C312        O316   1.265       .  A
C312        C453   1.472       .  S
O317        C320   1.268       .  A
O317       Cd322   2.473       .  S
C318        O327   1.267       .  A
C318        O323   1.269       .  A
C318        C443   1.478       .  S
O319        C325   1.271       .  A
C320        O328   1.263       .  A
C320        C433   1.483       .  S
C321        O326   1.270       .  A
C321        O324   1.263       .  A
C321        C400   1.477       .  S
Cd322       O328   2.447       .  S
Cd322       O326   2.493   1_655  S
Cd322       O324   2.403   1_655  S
C325        O329   1.264       .  A
C325        C390   1.482       .  S
O330        C333   1.269       .  A
O330       Cd335   2.479       .  S
C331        O340   1.264       .  A
C331        O336   1.269       .  A
C331        C523   1.473       .  S
O332        C338   1.269       .  A
O332       Cd335   2.464       .  S
C333        O341   1.264       .  A
C333        C463   1.480       .  S
C334        O339   1.268       .  A
C334        O337   1.265       .  A
C334        C393   1.478       .  S
Cd335       O342   2.435       .  S
Cd335       O341   2.431       .  S
Cd335       O340   2.421       .  S
Cd335       O336   2.483       .  S
Cd335       O339   2.469       .  S
Cd335       O337   2.433       .  S
C338        O342   1.265       .  A
C338        C383   1.480       .  S
O343        C346   1.268       .  A
O343       Cd348   2.462   1_565  S
C344        O353   1.264       .  A
C344        O349   1.267       .  A
C344        C503   1.482       .  S
O345        C351   1.269       .  A
O345       Cd348   2.497   1_565  S
C346        O354   1.265   1_565  A
C346        C493   1.488       .  S
C347        O352   1.270       .  A
C347        O350   1.264       .  A
C347        C373   1.470       .  S
Cd348       O355   2.404   1_545  S
Cd348       O354   2.451       .  S
Cd348       O353   2.445       .  S
Cd348       O349   2.477       .  S
Cd348       O352   2.486       .  S
Cd348       O350   2.407       .  S
C351        O355   1.263       .  A
C351        C423   1.476       .  S
O356        C359   1.271       .  A
O356       Cd361   2.480       .  S
C357        O366   1.265       .  A
C357        O362   1.271       .  A
C357        C413   1.485       .  S
O358        C364   1.271       .  A
O358       Cd361   2.475       .  S
C359        O367   1.264       .  A
C359        C370   1.478       .  S
C360        O365   1.271       .  A
C360        O363   1.265       .  A
C360        C380   1.482       .  S
Cd361       O368   2.411       .  S
Cd361       O367   2.410       .  S
Cd361       O366   2.430       .  S
Cd361       O362   2.473       .  S
Cd361       O365   2.475       .  S
Cd361       O363   2.418       .  S
C364        O368   1.265       .  A
C364        C403   1.474       .  S
C369        C370   1.414       .  A
C369        C374   1.402       .  A
C369       Br376   1.936       .  S
C370        C371   1.413       .  A
C371        C372   1.411       .  A
C371       Br378   1.929       .  S
C372        C373   1.408       .  A
C372       Br377   1.928       .  S
C373        C374   1.407       .  A
C374       Br375   1.935       .  S
C379        C384   1.409       .  A
C379       Br386   1.932       .  S
C380        C381   1.415       .  A
C381        C382   1.407       .  A
C381       Br388   1.935       .  S
C382       Br387   1.934       .  S
C383        C384   1.413       .  A
C384       Br385   1.934       .  S
C389        C390   1.413       .  A
C389        C394   1.409       .  A
C389       Br396   1.931       .  S
C390        C391   1.415       .  A
C391        C392   1.406       .  A
C391       Br398   1.936       .  S
C392        C393   1.410       .  A
C392       Br397   1.933       .  S
C393        C394   1.412       .  A
C394       Br395   1.932       .  S
C399        C400   1.411       .  A
C399        C404   1.412       .  A
C400        C401   1.413       .  A
C401        C402   1.402       .  A
C401       Br408   1.935       .  S
C402        C403   1.410       .  A
C402       Br407   1.935       .  S
C403        C404   1.410       .  A
C409        C410   1.411       .  A
C409        C414   1.409       .  A
C409       Br416   1.934       .  S
C410        C411   1.414       .  A
C411        C412   1.408       .  A
C411       Br418   1.934       .  S
C412        C413   1.412       .  A
C412       Br417   1.933       .  S
C413        C414   1.417       .  A
C414       Br415   1.934       .  S
C419        C420   1.408       .  A
C419        C424   1.401       .  A
C419       Br426   1.935       .  S
C420        C421   1.409       .  A
C421        C422   1.412       .  A
C421       Br428   1.928       .  S
C422        C423   1.411       .  A
C422       Br427   1.928       .  S
C423        C424   1.412       .  A
C424       Br425   1.935       .  S
C429        C430   1.414       .  A
C429        C434   1.408       .  A
C429       Br436   1.933       .  S
C430        C431   1.412       .  A
C431        C432   1.409       .  A
C431       Br438   1.934       .  S
C432        C433   1.415       .  A
C432       Br437   1.934       .  S
C433        C434   1.411       .  A
C434       Br435   1.933       .  S
C439        C440   1.410       .  A
C439        C444   1.409       .  A
C439       Br446   1.932   1_655  S
C440        C441   1.410       .  A
C441        C442   1.407       .  A
C441       Br448   1.933       .  S
C442        C443   1.412       .  A
C442       Br447   1.932       .  S
C443        C444   1.412       .  A
C444       Br445   1.932   1_655  S
C449        C450   1.414       .  A
C449        C454   1.403       .  A
C449       Br456   1.936       .  S
C450        C451   1.413       .  A
C451        C452   1.412       .  A
C451       Br458   1.929       .  S
C452        C453   1.409       .  A
C452       Br457   1.929       .  S
C453        C454   1.407       .  A
C454       Br455   1.936       .  S
C459        C460   1.413       .  A
C459        C464   1.409       .  A
C459       Br466   1.933       .  S
C460        C461   1.410       .  A
C461        C462   1.408       .  A
C461       Br468   1.933       .  S
C462        C463   1.413       .  A
C462       Br467   1.933       .  S
C463        C464   1.411       .  A
C464       Br465   1.932       .  S
C469        C470   1.412       .  A
C469        C474   1.409       .  A
C469       Br476   1.934       .  S
C470        C471   1.416       .  A
C471        C472   1.409       .  A
C471       Br478   1.935       .  S
C472        C473   1.412       .  A
C472       Br477   1.934       .  S
C473        C474   1.416       .  A
C474       Br475   1.935       .  S
C479        C480   1.414       .  A
C479        C484   1.407       .  A
C479       Br486   1.935       .  S
C480        C481   1.412       .  A
C481        C482   1.409       .  A
C481       Br488   1.932       .  S
C482        C483   1.414       .  A
C482       Br487   1.933       .  S
C483        C484   1.412       .  A
C484       Br485   1.934       .  S
C489        C490   1.411       .  A
C489        C494   1.411       .  A
C489       Br496   1.933       .  S
C491        C492   1.408   1_554  A
C491       Br498   1.936       .  S
C492        C493   1.415   1_545  A
C492       Br497   1.936       .  S
C494       Br495   1.934       .  S
C499        C500   1.412   1_565  A
C499        C504   1.409       .  A
C499       Br506   1.934       .  S
C500        C501   1.410       .  A
C501        C502   1.408       .  A
C501       Br508   1.933       .  S
C502        C503   1.414       .  A
C502       Br507   1.933       .  S
C503        C504   1.413   1_545  A
C504       Br505   1.933       .  S
C509        C510   1.410       .  A
C509        C514   1.407       .  A
C509       Br516   1.933       .  S
C510        C511   1.412       .  A
C511        C512   1.409       .  A
C511       Br518   1.932       .  S
C512        C513   1.412       .  A
C512       Br517   1.931       .  S
C513        C514   1.415       .  A
C514       Br515   1.935       .  S
C519        C520   1.413       .  A
C519        C524   1.412       .  A
C519       Br526   1.928       .  S
C520        C521   1.414       .  A
C521        C522   1.402       .  A
C521       Br528   1.937       .  S
C522        C523   1.408       .  A
C522       Br527   1.935       .  S
C523        C524   1.409       .  A
C524       Br525   1.928       .  S
