geometry optimzed in LAMMPS
_audit_creation_date              2020-11-30 
_audit_creation_method            'lammps2cif' 
_symmetry_space_group_name_H-M    'P1' 
_symmetry_Int_Tables_number       1 
_symmetry_cell_setting            triclinic 
loop_ 
_symmetry_equiv_pos_as_xyz 
  x,y,z 
_cell_length_a                    42.7265026 
_cell_length_b                    42.90470319443229 
_cell_length_c                    42.8841171364235 
_cell_angle_alpha                 90.07749143198109 
_cell_angle_beta                  89.97686134024825 
_cell_angle_gamma                 89.93284042664625 
loop_ 
_atom_site_label 
_atom_site_type_symbol 
_atom_site_fract_x 
_atom_site_fract_y 
_atom_site_fract_z 
_atom_site_charge 
C1          C  0.77552428  0.76033030  0.72318319     0.80100
N2          N  0.78030056  0.73513550  0.74163509    -0.78200
C3          C  0.76125094  0.72916109  0.76619455     0.82500
N4          N  0.73728379  0.74914929  0.77248905    -0.78200
C5          C  0.73197239  0.77455564  0.75424626     0.82600
N6          N  0.75111870  0.77972755  0.72934486    -0.79900
C7          C  0.21603408  0.71221775  0.22396465     0.80100
N8          N  0.23654481  0.70780411  0.24781905    -0.78200
C9          C  0.26214059  0.72623719  0.25123489     0.82500
N10         N  0.26694147  0.74965050  0.23033529    -0.78200
C11         C  0.24695105  0.75425808  0.20604280     0.82600
N12         N  0.22147285  0.73548428  0.20323849    -0.79900
C13         C  0.71649433  0.74672576  0.26079826     0.80100
N14         N  0.74023552  0.76744739  0.25730553    -0.78200
C15         C  0.76060305  0.76528257  0.23301723     0.82500
N16         N  0.75706197  0.74179379  0.21214256    -0.78200
C17         C  0.73336310  0.72096938  0.21509901     0.82600
N18         N  0.71332256  0.72351124  0.23947038    -0.79900
C19         C  0.23116027  0.27497835  0.25731954     0.80100
N20         N  0.23711133  0.25075900  0.27672996    -0.78200
C21         C  0.26302902  0.23278129  0.27323924     0.82500
N22         N  0.28324313  0.23914446  0.24960967    -0.78200
C23         C  0.27815844  0.26363865  0.22994804     0.82600
N24         N  0.25188633  0.28126914  0.23395082    -0.79900
C25         C  0.72703683  0.25093646  0.27562216     0.80100
N26         N  0.70787562  0.24810403  0.25049185    -0.78200
C27         C  0.71232676  0.22496814  0.22931699     0.82500
N28         N  0.73614749  0.20443144  0.23351954    -0.78200
C29         C  0.75546684  0.20659015  0.25860869     0.82600
N30         N  0.75087270  0.23019813  0.27932685    -0.79900
C31         C  0.74583755  0.25779335  0.71553350     0.80100
N32         N  0.76126388  0.25495751  0.74304210    -0.78200
C33         C  0.75465816  0.23149940  0.76323170     0.82500
N34         N  0.73221054  0.21042490  0.75570279    -0.78200
C35         C  0.71606855  0.21293371  0.72841795     0.82600
N36         N  0.72307526  0.23666190  0.70854576    -0.79900
C37         C  0.21521228  0.72497934  0.72299258     0.80100
N38         N  0.21056754  0.74936352  0.74289381    -0.78200
C39         C  0.23017811  0.75439019  0.76738888     0.82500
N40         N  0.25513963  0.73518065  0.77134104    -0.78200
C41         C  0.26041125  0.71095774  0.75171655     0.82600
N42         N  0.24026697  0.70597591  0.72766249    -0.79900
O43         O  0.02599414  0.02577522  0.95988496    -0.88500
C44         C  0.08379732  0.01127789  0.03243013     0.87600
Mg45       Mg  0.99365508  0.06380595  0.96005044     1.58100
O46         O  0.01885647  0.96044377  0.03082589    -0.88200
O47         O  0.02257628  0.97479626  0.95793144    -0.75500
C48         C  0.93305142  0.06678613  0.10358665     0.92600
O49         O  0.05783764  0.07576600  0.00503174    -0.75300
O50         O  0.93509492  0.08601262  0.08095887    -0.82900
Mg51       Mg  0.07377994  0.03691726  0.97148099     1.58000
C52         C  0.96874811  0.94373885  0.11138089     0.92500
O53         O  0.09650845  0.99968310  0.93752007    -0.81100
H54         H  0.99290006  0.92922300  0.00779746    -0.06500
C55         C  0.01199100  0.03499886  0.08775921     0.87500
O56         O  0.95366662  0.03247571  0.97667339    -0.75600
O57         O  0.06999590  0.00392614  0.00817444    -0.88400
O58         O  0.99701778  0.94066080  0.10205550    -0.81200
C59         C  0.09269882  0.92999701  0.06033926     0.92600
C60         C  0.10338638  0.97059821  0.93901633     0.92500
Mg61       Mg  0.95455567  0.00149529  0.06452623     1.58000
O62         O  0.94034855  0.03825720  0.10000348    -0.81100
O63         O  0.96743600  0.96176443  0.03103212    -0.75400
O64         O  0.08943178  0.93868631  0.03219948    -0.81200
O65         O  0.07745042  0.07541228  0.93488964    -0.82900
O66         O  0.93628358  0.10518881  0.00522172    -0.81200
C67         C  0.99326697  0.94935569  0.02299852     0.86900
O68         O  0.95557057  0.03463920  0.02784743    -0.88400
O69         O  0.00258448  0.01087608  0.07501308    -0.88500
O70         O  0.00411683  0.06187620  0.07808014    -0.75500
Mg71       Mg  0.05516288  0.95765371  0.99672393     1.58000
O72         O  0.07076448  0.93360186  0.08019921    -0.82900
H73         H  0.00143563  0.00364687  0.92692840    -0.06600
O74         O  0.00650066  0.07583592  0.00671129    -0.88200
H75         H  0.03231667  0.10704591  0.02982419    -0.06500
H76         H  0.92160790  0.01214526  0.00498797    -0.06600
C77         C  0.03199101  0.08724385  0.01424460     0.86900
C78         C  0.01649482  0.00168938  0.94711266     0.87500
C79         C  0.94246473  0.02634322  0.00344372     0.87500
H80         H  0.02799529  0.03317669  0.10714757    -0.06600
O81         O  0.07369117  0.00336823  0.05912243    -0.75600
Mg82       Mg  0.97045113  0.08088765  0.04076582     1.58000
H83         H  0.10449971  0.02560060  0.03092342    -0.06600
C84         C  0.05905385  0.09880050  0.93291269     0.92500
O85         O  0.95836916  0.10241864  0.95816151    -0.82900
C86         C  0.93724740  0.11274767  0.97633596     0.92600
O87         O  0.09255364  0.95321696  0.96038825    -0.82900
Mg88       Mg  0.03399267  0.97234498  0.07749552     1.58200
O89         O  0.03077918  0.09721300  0.94211796    -0.81200
O90         O  0.95143759  0.96593012  0.10216110    -0.82900
C91         C  0.11401883  0.27497626  0.91483185     0.80100
N92         N  0.10160295  0.24658684  0.92162932    -0.78200
C93         C  0.10813786  0.22137157  0.90356698     0.82500
N94         N  0.12757765  0.22471002  0.87891566    -0.78200
C95         C  0.14036844  0.25267042  0.87177272     0.82600
N96         N  0.13302592  0.27807663  0.88944944    -0.79900
C97         C  0.91372272  0.10766264  0.28490225     0.80100
N98         N  0.92230136  0.09848004  0.25563008    -0.78200
C99         C  0.90427873  0.10564001  0.23049755     0.82500
N100        N  0.87762560  0.12206540  0.23477137    -0.78200
C101        C  0.86852746  0.13147718  0.26352374     0.82600
N102        N  0.88666433  0.12428304  0.28868161    -0.79900
C103        C  0.27194428  0.90957190  0.10384751     0.80100
N104        N  0.27679003  0.88296978  0.12070203    -0.78200
C105        C  0.25232976  0.86364347  0.12733556     0.82500
N106        N  0.22332906  0.87082914  0.11672574    -0.78200
C107        C  0.21821512  0.89691792  0.09978372     0.82600
N108        N  0.24260187  0.91618973  0.09344582    -0.79900
O109        O  0.91422681  0.52818041  0.49559656    -0.88500
C110        C  0.00462335  0.53095446  0.52319959     0.87600
Mg111      Mg  0.89361553  0.48599803  0.48020349     1.58100
O112        O  0.99098851  0.56266458  0.44907835    -0.88200
O113        O  0.92359465  0.57453566  0.47651786    -0.75500
C114        C  0.99613089  0.42257489  0.38005470     0.92600
O115        O  0.95307861  0.47532440  0.52999808    -0.75300
O116        O  0.97287233  0.41382261  0.39660627    -0.82900
Mg117      Mg  0.93743339  0.52629987  0.53951461     1.58000
C118        C  0.04594772  0.54285586  0.37364722     0.92500
O119        O  0.92138896  0.57751144  0.55260744    -0.81100
H120        H  0.96837286  0.59307998  0.42193273    -0.06500
C121        C  0.02291987  0.47370188  0.45037004     0.87500
O122        O  0.90159308  0.49987502  0.42908961    -0.75600
O123        O  0.97907163  0.54248923  0.51574411    -0.88400
O124        O  0.04808188  0.55595554  0.40042944    -0.81200
C125        C  0.05128137  0.60247284  0.49457505     0.92600
C126        C  0.93327379  0.60473212  0.54931555     0.92500
Mg127      Mg  0.98913554  0.49952546  0.39474166     1.58000
O128        O  0.00597530  0.45055060  0.38065095    -0.81100
O129        O  0.97317756  0.55005058  0.40287783    -0.75400
O130        O  0.02340251  0.60089269  0.50485883    -0.81200
O131        O  0.89389309  0.50630560  0.56488071    -0.82900
O132        O  0.90160554  0.42463647  0.42637511    -0.81200
C133        C  0.97753136  0.56978742  0.42455896     0.86900
O134        O  0.94841631  0.48264606  0.41721570    -0.88400
O135        O  0.01432223  0.49826181  0.43775171    -0.88500
O136        O  0.00443811  0.45063179  0.45399857    -0.75500
Mg137      Mg  0.97448543  0.58494424  0.49001166     1.58000
O138        O  0.06000200  0.58683669  0.47071509    -0.82900
H139        H  0.88111620  0.55352957  0.47456929    -0.06600
O140        O  0.93761908  0.46252759  0.48274177    -0.88200
H141        H  0.96010528  0.43268027  0.51061322    -0.06500
H142        H  0.92057964  0.50310772  0.38584241    -0.06600
C143        C  0.95047234  0.45571274  0.50774693     0.86900
C144        C  0.90512479  0.55212404  0.48237050     0.87500
C145        C  0.92345102  0.49510067  0.40955054     0.87500
H146        H  0.04654426  0.47195394  0.45891511    -0.06600
O147        O  0.02708743  0.52809865  0.50378002    -0.75600
Mg148      Mg  0.95313524  0.43906891  0.44057045     1.58000
H149        H  0.00779342  0.52262760  0.54671480    -0.06600
C150        C  0.87839491  0.48208188  0.55707639     0.92500
O151        O  0.87036819  0.44336177  0.46335738    -0.82900
C152        C  0.87462159  0.42674531  0.43928493     0.92600
O153        O  0.95618007  0.60961571  0.53124170    -0.82900
Mg154      Mg  0.03610415  0.54162319  0.45221148     1.58200
O155        O  0.87990548  0.47075870  0.52968173    -0.81200
O156        O  0.03033858  0.51803789  0.36986596    -0.82900
C157        C  0.70301819  0.40749382  0.37563826     0.80100
N158        N  0.69929055  0.38146107  0.35767463    -0.78200
C159        C  0.72397679  0.36190052  0.35256638     0.82500
N160        N  0.75205662  0.36816250  0.36581192    -0.78200
C161        C  0.75599107  0.39362361  0.38396365     0.82600
N162        N  0.73142147  0.41324699  0.38885230    -0.79900
C163        C  0.06345172  0.60531440  0.20212042     0.80100
N164        N  0.05808600  0.59253425  0.23063656    -0.78200
C165        C  0.07692601  0.59905006  0.25526171     0.82500
N166        N  0.10149091  0.61836638  0.25126671    -0.78200
C167        C  0.10789836  0.63079959  0.22293995     0.82600
N168        N  0.08880004  0.62433508  0.19824092    -0.79900
C169        C  0.87702328  0.77644037  0.56718903     0.80100
N170        N  0.88686156  0.74672353  0.56160605    -0.78200
C171        C  0.87662026  0.72254201  0.57939416     0.82500
N172        N  0.85693817  0.72820924  0.60346533    -0.78200
C173        C  0.84684635  0.75758647  0.60944652     0.82600
N174        N  0.85696523  0.78168512  0.59141715    -0.79900
O175        O  0.99943141  0.91372274  0.45016937    -0.88500
C176        C  0.96694412  0.00325171  0.45418059     0.87600
Mg177      Mg  0.01911091  0.89136083  0.48915677     1.58100
O178        O  0.04042275  0.99625349  0.41813579    -0.88200
O179        O  0.01684476  0.92790069  0.40429573    -0.75500
C180        C  0.11444196  0.99608198  0.55398372     0.92600
O181        O  0.96702491  0.94805996  0.50807705    -0.75300
O182        O  0.10217331  0.96980192  0.56036354    -0.82900
Mg183      Mg  0.95487266  0.93556711  0.45719633     1.58000
C184        C  0.11307849  0.05545483  0.43812563     0.92500
O185        O  0.93855903  0.92240110  0.40698840    -0.81100
H186        H  0.06772351  0.97983753  0.38392689    -0.06500
C187        C  0.04036134  0.02122892  0.50883426     0.87500
O188        O  0.06872293  0.90464784  0.47220826    -0.75600
O189        O  0.97600226  0.97875319  0.44172256    -0.88400
O190        O  0.08593718  0.05573084  0.42535755    -0.81200
C191        C  0.98966149  0.05379360  0.38250938     0.92600
C192        C  0.94024733  0.93490012  0.38000355     0.92500
Mg193      Mg  0.09733360  0.99505327  0.47770097     1.58000
O194        O  0.11075089  0.00885070  0.52750686    -0.81100
O195        O  0.08914225  0.98300226  0.42608205    -0.75400
O196        O  0.98047812  0.02569713  0.38423098    -0.81200
O197        O  0.93222338  0.89050683  0.47639050    -0.82900
O198        O  0.07864776  0.89879169  0.54314839    -0.81200
C199        C  0.06571726  0.98639557  0.40819408     0.86900
O200        O  0.07835774  0.95121570  0.49105421    -0.88400
O201        O  0.05260380  0.01632137  0.48299290    -0.88500
O202        O  0.03984807  0.00053494  0.53030027    -0.75500
Mg203      Mg  0.99943715  0.97777492  0.39749952     1.58000
O204        O  0.01329258  0.06363662  0.39791420    -0.82900
H205        H  0.02168842  0.88422851  0.42163875    -0.06600
O206        O  0.01562225  0.93322819  0.51555724    -0.88200
H207        H  0.98955077  0.95178055  0.54958417    -0.06500
H208        H  0.10981583  0.92751519  0.46587250    -0.06600
C209        C  0.99080542  0.94433312  0.52554716     0.86900
C210        C  0.01241670  0.90744465  0.42516219     0.87500
C211        C  0.08677349  0.92789438  0.47621218     0.87500
H212        H  0.02963724  0.04353886  0.51323133    -0.06600
O213        O  0.98470668  0.02698699  0.45680888    -0.75600
Mg214      Mg  0.05839292  0.94969282  0.53637578     1.58000
H215        H  0.94352851  0.00437579  0.46345038    -0.06600
C216        C  0.94277205  0.87237516  0.49750756     0.92500
O217        O  0.04018140  0.86680493  0.52915361    -0.82900
C218        C  0.06727598  0.87135631  0.54011604     0.92600
O219        O  0.95812115  0.95772501  0.37443091    -0.82900
Mg220      Mg  0.03512467  0.03970146  0.44150403     1.58200
O221        O  0.97136136  0.87289890  0.50588183    -0.81200
O222        O  0.11802231  0.04005140  0.46285328    -0.82900
C223        C  0.11835762  0.69739799  0.56387096     0.80100
N224        N  0.13365861  0.69233738  0.59142460    -0.78200
C225        C  0.14227432  0.71701182  0.60962460     0.82500
N226        N  0.13516042  0.74636235  0.60042884    -0.78200
C227        C  0.11992609  0.75189678  0.57340878     0.82600
N228        N  0.11153994  0.72719012  0.55528991    -0.79900
C229        C  0.28205263  0.07377149  0.37033256     0.80100
N230        N  0.28702765  0.09973579  0.35263016    -0.78200
C231        C  0.26312367  0.12025900  0.34736930     0.82500
N232        N  0.23461229  0.11512177  0.36052971    -0.78200
C233        C  0.22958478  0.08964718  0.37847633     0.82600
N234        N  0.25335323  0.06912209  0.38314557    -0.79900
C235        C  0.90684037  0.87851407  0.21109130     0.80100
N236        N  0.88189766  0.85898940  0.20835556    -0.78200
C237        C  0.86568947  0.85006356  0.23413729     0.82500
N238        N  0.87476225  0.86030369  0.26260357    -0.78200
C239        C  0.89949750  0.87962881  0.26558233     0.82600
N240        N  0.91533030  0.88896108  0.23978856    -0.79900
O241        O  0.49219462  0.41853888  0.94616048    -0.88500
C242        C  0.46557488  0.50883877  0.94193158     0.87600
Mg243      Mg  0.50984019  0.39902019  0.98751656     1.58100
O244        O  0.53942175  0.49329403  0.90899021    -0.88200
O245        O  0.51094473  0.42597174  0.89940784    -0.75500
C246        C  0.61034224  0.50232763  0.04688822     0.92600
O247        O  0.45992905  0.45892232  0.99948440    -0.75300
O248        O  0.59416931  0.47916883  0.05623453    -0.82900
Mg249      Mg  0.44839292  0.44241363  0.94943537     1.58000
C250        C  0.61562725  0.54802047  0.92405885     0.92500
O251        O  0.43268149  0.42623189  0.89912838    -0.81100
H252        H  0.56593540  0.47056780  0.87794222    -0.06500
C253        C  0.54005054  0.52791603  0.99630170     0.87500
O254        O  0.56039960  0.40694373  0.97155850    -0.75600
O255        O  0.47250205  0.48295674  0.93096277    -0.88400
O256        O  0.58830705  0.54970428  0.91186196    -0.81200
C257        C  0.49398942  0.55155469  0.86708345     0.92600
C258        C  0.43628499  0.43702896  0.87148295     0.92500
Mg259      Mg  0.59542503  0.49356167  0.97022316     1.58000
O260        O  0.60960934  0.51147468  0.01865706    -0.81100
O261        O  0.58643846  0.47640804  0.92023228    -0.75400
O262        O  0.48412351  0.52379861  0.86961524    -0.81200
O263        O  0.42299784  0.39988888  0.97246432    -0.82900
O264        O  0.56405673  0.40887824  0.04940967    -0.81200
C265        C  0.56395194  0.48006937  0.90121245     0.86900
O266        O  0.57318782  0.45341058  0.98861412    -0.88400
O267        O  0.55233466  0.51872318  0.97176627    -0.88500
O268        O  0.53660157  0.51006475  0.01980159    -0.75500
Mg269      Mg  0.49800037  0.47630707  0.88815247     1.58000
O270        O  0.51683407  0.56167824  0.88336806    -0.82900
H271        H  0.51154635  0.38413278  0.92129102    -0.06600
O272        O  0.50769233  0.44328750  0.01043456    -0.88200
H273        H  0.48106457  0.46615831  0.04127128    -0.06500
H274        H  0.60379747  0.42547033  0.96706627    -0.06600
C275        C  0.48295285  0.45626407  0.01816933     0.86900
C276        C  0.50457730  0.40833865  0.92220859     0.87500
C277        C  0.58030450  0.42848310  0.97589937     0.87500
H278        H  0.53156031  0.55156678  0.99763748    -0.06600
O279        O  0.48537457  0.53101599  0.94371560    -0.75600
Mg280      Mg  0.55012584  0.45930399  0.03250896     1.58000
H281        H  0.44226023  0.51251926  0.95078743    -0.06600
C282        C  0.43271437  0.38492261  0.99639879     0.92500
O283        O  0.52890810  0.37645178  0.02932089    -0.82900
C284        C  0.55144616  0.38187321  0.04763730     0.92600
O285        O  0.45612272  0.45799853  0.86535770    -0.82900
Mg286      Mg  0.53673053  0.53909134  0.92843528     1.58200
O287        O  0.46126083  0.38577969  0.00469454    -0.81200
O288        O  0.62016593  0.53418505  0.94980650    -0.82900
C289        C  0.41197014  0.37386452  0.70281410     0.80100
N290        N  0.38537312  0.35666243  0.69924131    -0.78200
C291        C  0.36699917  0.35021374  0.72439435     0.82500
N292        N  0.37510617  0.36145675  0.75277423    -0.78200
C293        C  0.40101842  0.37893403  0.75657214     0.82600
N294        N  0.41934252  0.38541313  0.73148572    -0.79900
C295        C  0.60752972  0.21262570  0.07568861     0.80100
N296        N  0.62672269  0.20786683  0.10059090    -0.78200
C297        C  0.63519664  0.23212455  0.11919134     0.82500
N298        N  0.62453878  0.26126225  0.11289783    -0.78200
C299        C  0.60575698  0.26634377  0.08795025     0.82600
N300        N  0.59707533  0.24193028  0.06963874    -0.79900
C301        C  0.78731724  0.56975850  0.85982129     0.80100
N302        N  0.79035860  0.59665949  0.84317627    -0.78200
C303        C  0.76476356  0.61463011  0.83711654     0.82500
N304        N  0.73626617  0.60573251  0.84776620    -0.78200
C305        C  0.73296770  0.57916578  0.86436940     0.82600
N306        N  0.75855988  0.56128934  0.87049097    -0.79900
O307        O  0.94917290  0.48902076  0.06056552    -0.88500
C308        C  0.95449359  0.52095631  0.97176905     0.87600
Mg309      Mg  0.98806507  0.47095095  0.08467475     1.58100
O310        O  0.91757854  0.44876026  0.98059033    -0.88200
O311        O  0.90208143  0.47412502  0.04726591    -0.75500
C312        C  0.05399316  0.37358816  0.98285920     0.92600
O313        O  0.00693758  0.52239918  0.02789219    -0.75300
O314        O  0.06171916  0.38733946  0.00814696    -0.82900
Mg315      Mg  0.95520018  0.53355332  0.03957444     1.58000
C316        C  0.93571556  0.37434842  0.92628163     0.92500
O317        O  0.90389199  0.54654877  0.05311789    -0.81100
H318        H  0.88375273  0.42261846  0.99933574    -0.06500
C319        C  0.00889658  0.44675015  0.95637084     0.87500
O320        O  0.97250400  0.42096184  0.07358772    -0.75600
O321        O  0.94111809  0.51261982  0.99602947    -0.88400
O322        O  0.92474537  0.40203645  0.92454195    -0.81200
C323        C  0.88388562  0.49763878  0.91980977     0.92600
C324        C  0.87705007  0.54600397  0.04001952     0.92500
Mg325      Mg  0.97744618  0.39112785  0.98473659     1.58000
O326        O  0.02680323  0.37638397  0.97117349    -0.81100
O327        O  0.92607218  0.40120863  0.99710011    -0.75400
O328        O  0.88497927  0.50746059  0.94774357    -0.81200
O329        O  0.97260595  0.55672469  0.08487653    -0.82900
O330        O  0.04824822  0.41469666  0.08033598    -0.81200
C331        C  0.90795650  0.42421126  0.99225342     0.86900
O332        O  0.99244538  0.41083732  0.02772329    -0.88400
O333        O  0.98296668  0.43499658  0.96196163    -0.88500
O334        O  0.03059352  0.44800445  0.97682828    -0.75500
Mg335      Mg  0.89650489  0.49023707  0.99658583     1.58000
O336        O  0.89909179  0.47343057  0.91124940    -0.82900
H337        H  0.92002563  0.46852438  0.09068549    -0.06600
O338        O  0.01596480  0.47433023  0.04354285    -0.88200
H339        H  0.04926144  0.50108690  0.02476870    -0.06500
H340        H  0.96880586  0.37895166  0.05214228    -0.06600
C341        C  0.02520673  0.49921479  0.03205273     0.86900
C342        C  0.92367118  0.47724572  0.06735066     0.87500
C343        C  0.97794507  0.40238744  0.05116427     0.87500
H344        H  0.01314738  0.45653886  0.93357691    -0.06600
O345        O  0.95780718  0.50265236  0.94853294    -0.75600
Mg346      Mg  0.03782019  0.43159166  0.02806675     1.58000
H347        H  0.96400534  0.54419473  0.97045388    -0.06600
C348        C  0.99458071  0.54706343  0.10247585     0.92500
O349        O  0.02741027  0.45108954  0.11083698    -0.82900
C350        C  0.04419864  0.42698317  0.10739156     0.92600
O351        O  0.87309154  0.53279257  0.01390620    -0.82900
Mg352      Mg  0.94193142  0.45222378  0.93748468     1.58200
O353        O  0.00401089  0.51895551  0.10180349    -0.81200
O354        O  0.96087895  0.36851968  0.94084566    -0.82900
C355        C  0.70725493  0.57001936  0.10979880     0.80100
N356        N  0.70645822  0.59520220  0.12928485    -0.78200
C357        C  0.73336808  0.61105603  0.13596766     0.82500
N358        N  0.76039860  0.60197888  0.12216430    -0.78200
C359        C  0.76135564  0.57743241  0.10246648     0.82600
N360        N  0.73474953  0.56134805  0.09650511    -0.79900
C361        C  0.06838918  0.36678598  0.28079978     0.80100
N362        N  0.06113882  0.37798540  0.25205617    -0.78200
C363        C  0.08033388  0.37368695  0.22718037     0.82500
N364        N  0.10740737  0.35783490  0.23118550    -0.78200
C365        C  0.11559930  0.34663770  0.25966642     0.82600
N366        N  0.09603828  0.35110533  0.28458013    -0.79900
C367        C  0.86560584  0.20664726  0.91211658     0.80100
N368        N  0.87938992  0.23477479  0.91669069    -0.78200
C369        C  0.87037104  0.25998793  0.89997626     0.82500
N370        N  0.84712866  0.25708173  0.87881721    -0.78200
C371        C  0.83294869  0.22919509  0.87357275     0.82600
N372        N  0.84259699  0.20373468  0.89014255    -0.79900
O373        O  0.45377441  0.96701055  0.95072435    -0.88500
C374        C  0.46354326  0.04155296  0.89591092     0.87600
Mg375      Mg  0.41649633  0.96610281  0.98367443     1.58100
O376        O  0.51819761  0.03997717  0.95747509    -0.88200
O377        O  0.50513340  0.96702256  0.95327728    -0.75500
C378        C  0.41439678  0.10910027  0.04735273     0.92600
O379        O  0.40100500  0.01129895  0.92147401    -0.75300
O380        O  0.39494993  0.08642774  0.04579315    -0.82900
Mg381      Mg  0.44055313  0.97911133  0.90372691     1.58000
C382        C  0.53762137  0.11853757  0.00899286     0.92500
O383        O  0.47843290  0.94644040  0.87986410    -0.81100
H384        H  0.55139328  0.01689234  0.98089451    -0.06500
C385        C  0.44352076  0.09525657  0.96873676     0.87500
O386        O  0.44873122  0.98249460  0.02317985    -0.75600
O387        O  0.47250112  0.01691275  0.90800952    -0.88400
O388        O  0.53905103  0.11094249  0.98011412    -0.81200
C389        C  0.54225711  0.07144784  0.88225949     0.92600
C390        C  0.50742088  0.94894353  0.87247375     0.92500
Mg391      Mg  0.47972430  0.07070692  0.02394281     1.58000
O392        O  0.44291090  0.10532721  0.03984311    -0.81100
O393        O  0.51936408  0.03818123  0.00865983    -0.75400
O394        O  0.53494286  0.04308707  0.88615831    -0.81200
O395        O  0.40261672  0.94131848  0.89972454    -0.82900
O396        O  0.37513960  0.00895782  0.04343092    -0.81200
C397        C  0.53080571  0.03157475  0.98208684     0.86900
O398        O  0.44630895  0.03370491  0.02289647    -0.88400
O399        O  0.46836778  0.08297793  0.97708028    -0.88500
O400        O  0.41700678  0.08450759  0.97676956    -0.75500
Mg401      Mg  0.51987858  0.00664322  0.92069832     1.58000
O402        O  0.54128123  0.09088866  0.90478804    -0.82900
H403        H  0.47773823  0.93473683  0.97443114    -0.06600
O404        O  0.40343045  0.01287804  0.97255356    -0.88200
H405        H  0.37026539  0.03524994  0.94850144    -0.06500
H406        H  0.47008470  0.00997724  0.05527969    -0.06600
C407        C  0.39056704  0.02025483  0.94778823     0.86900
C408        C  0.47864864  0.95509668  0.95960999     0.87500
C409        C  0.45518271  0.00897112  0.03490834     0.87500
H410        H  0.44437935  0.11515003  0.95334743    -0.06600
O411        O  0.47174398  0.06809642  0.90629046    -0.75600
Mg412      Mg  0.39909314  0.04620634  0.00971956     1.58000
H413        H  0.44761606  0.04048321  0.87640260    -0.06600
C414        C  0.37974293  0.93904357  0.91877863     0.92500
O415        O  0.37859612  0.96307530  0.01908811    -0.82900
C416        C  0.36813292  0.97991155  0.04110290     0.92600
O417        O  0.52425343  0.97089331  0.88306279    -0.82900
Mg418      Mg  0.50513136  0.08674674  0.94406054     1.58200
O419        O  0.38231079  0.94796141  0.94698321    -0.81200
O420        O  0.51613789  0.10826584  0.02674474    -0.82900
C421        C  0.56327323  0.10733773  0.70178094     0.80100
N422        N  0.59078223  0.12270789  0.69658572    -0.78200
C423        C  0.60852421  0.13232701  0.72120185     0.82500
N424        N  0.59878611  0.12643129  0.75062402    -0.78200
C425        C  0.57160773  0.11140443  0.75624499     0.82600
N426        N  0.55399704  0.10168214  0.73164036    -0.79900
C427        C  0.37202837  0.28920621  0.06945369     0.80100
N428        N  0.35875185  0.29319923  0.09824085    -0.78200
C429        C  0.35140651  0.26789859  0.11608426     0.82500
N430        N  0.35729256  0.23897473  0.10487765    -0.78200
C431        C  0.37074155  0.23450183  0.07674561     0.82600
N432        N  0.37842238  0.25976100  0.05914153    -0.79900
C433        C  0.20297000  0.90743780  0.87252683     0.80100
N434        N  0.23228478  0.91532426  0.88197386    -0.78200
C435        C  0.25770087  0.89815751  0.87359959     0.82500
N436        N  0.25337045  0.87236926  0.85585010    -0.78200
C437        C  0.22436376  0.86402342  0.84595979     0.82600
N438        N  0.19905896  0.88147847  0.85449151    -0.79900
O439        O  0.56661424  0.53010888  0.48941251    -0.88500
C440        C  0.47715194  0.52998829  0.45646400     0.87600
Mg441      Mg  0.58780251  0.48901492  0.50668014     1.58100
O442        O  0.48464971  0.56591081  0.52969872    -0.88200
O443        O  0.55354096  0.57673400  0.50613690    -0.75500
C444        C  0.48358772  0.43038447  0.60455847     0.92600
O445        O  0.53009456  0.47491876  0.45521922    -0.75300
O446        O  0.50885583  0.42166552  0.59135293    -0.82900
Mg447      Mg  0.54519419  0.52573780  0.44475910     1.58000
C448        C  0.42686926  0.54451947  0.60234022     0.92500
O449        O  0.56149447  0.57618643  0.43266704    -0.81100
H450        H  0.50361198  0.59917956  0.55630275    -0.06500
C451        C  0.45790974  0.47495195  0.53069702     0.87500
O452        O  0.57828079  0.50553443  0.55691282    -0.75600
O453        O  0.50187438  0.54193556  0.46561082    -0.88400
O454        O  0.42428125  0.55683918  0.57523740    -0.81200
C455        C  0.42624893  0.60156927  0.47977222     0.92600
C456        C  0.54945655  0.60344662  0.43384127     0.92500
Mg457      Mg  0.48837373  0.50586634  0.58566690     1.58000
O458        O  0.47285421  0.45769846  0.60084881    -0.81100
O459        O  0.50183257  0.55664572  0.57676782    -0.75400
O460        O  0.45466107  0.60042286  0.47079674    -0.81200
O461        O  0.59012804  0.50564148  0.42138193    -0.82900
O462        O  0.57983639  0.43605554  0.56557061    -0.81200
C463        C  0.49645187  0.57512366  0.55433993     0.86900
O464        O  0.53040274  0.49006159  0.56580124    -0.88400
O465        O  0.46478006  0.50076422  0.54188892    -0.88500
O466        O  0.47744845  0.45237534  0.52988652    -0.75500
Mg467      Mg  0.50333225  0.58591148  0.48882833     1.58000
O468        O  0.41655645  0.58580105  0.50316667    -0.82900
H469        H  0.59643249  0.55748698  0.51262616    -0.06600
O470        O  0.54438014  0.46530490  0.50355038    -0.88200
H471        H  0.52368266  0.43324417  0.47670278    -0.06500
H472        H  0.55599117  0.51175546  0.59830154    -0.06600
C473        C  0.53254417  0.45668193  0.47858217     0.86900
C474        C  0.57336064  0.55483103  0.50274181     0.87500
C475        C  0.55480757  0.50259661  0.57484373     0.87500
H476        H  0.43485444  0.47156622  0.52111886    -0.06600
O477        O  0.45339547  0.52737150  0.47423000    -0.75600
Mg478      Mg  0.52865391  0.44455836  0.54665531     1.58000
H479        H  0.47584751  0.52112395  0.43292936    -0.06600
C480        C  0.60499747  0.48154714  0.43065141     0.92500
O481        O  0.61008740  0.44630530  0.52505511    -0.82900
C482        C  0.60687282  0.43685980  0.55281085     0.92600
O483        O  0.52352079  0.60856797  0.44725637    -0.82900
Mg484      Mg  0.44102452  0.54217725  0.52467035     1.58200
O485        O  0.60273157  0.47182559  0.45852668    -0.81200
O486        O  0.44595897  0.52273465  0.60771143    -0.82900
C487        C  0.61300029  0.77372324  0.41539895     0.80100
N488        N  0.60232547  0.74513857  0.42376366    -0.78200
C489        C  0.61098349  0.71942643  0.40756196     0.82500
N490        N  0.63038686  0.72232788  0.38299798    -0.78200
C491        C  0.64104915  0.75060101  0.37380024     0.82600
N492        N  0.63200219  0.77658088  0.38992157    -0.79900
C493        C  0.41387710  0.60453418  0.77209707     0.80100
N494        N  0.38847647  0.62311047  0.77793737    -0.78200
C495        C  0.36751782  0.62945535  0.75476272     0.82500
N496        N  0.37229975  0.61787845  0.72582781    -0.78200
C497        C  0.39713144  0.59958722  0.71964804     0.82600
N498        N  0.41760655  0.59261055  0.74282219    -0.79900
C499        C  0.77973155  0.41405598  0.61838690     0.80100
N500        N  0.78143818  0.38634178  0.63394933    -0.78200
C501        C  0.75495584  0.36932325  0.63928009     0.82500
N502        N  0.72695232  0.38020848  0.62904200    -0.78200
C503        C  0.72489659  0.40755239  0.61349193     0.82600
N504        N  0.75133272  0.42431971  0.60848882    -0.79900
O505        O  0.44340681  0.98224640  0.56876399    -0.88500
C506        C  0.44610026  0.01436942  0.47978446     0.87600
Mg507      Mg  0.48283735  0.96221020  0.59057036     1.58100
O508        O  0.40699912  0.94311779  0.48828628    -0.88200
O509        O  0.39567545  0.96814852  0.55640754    -0.75500
C510        C  0.54251231  0.86529543  0.48410993     0.92600
O511        O  0.50083282  0.01429189  0.53352051    -0.75300
O512        O  0.55093155  0.87952885  0.50881192    -0.82900
Mg513      Mg  0.45021536  0.02666782  0.54768176     1.58000
C514        C  0.42296446  0.86871849  0.43035860     0.92500
O515        O  0.40035890  0.04175026  0.56342790    -0.81100
H516        H  0.37346844  0.91734692  0.50803453    -0.06500
C517        C  0.49695449  0.93929415  0.45988443     0.87500
O518        O  0.46495190  0.91313289  0.57863651    -0.75600
O519        O  0.43338088  0.00643420  0.50452920    -0.88400
O520        O  0.41154554  0.89637593  0.42948075    -0.81200
C521        C  0.37356449  0.99492486  0.42958534     0.92600
C522        C  0.37286008  0.04206845  0.55179430     0.92500
Mg523      Mg  0.46590830  0.88382461  0.48922213     1.58000
O524        O  0.51485854  0.86784461  0.47332829    -0.81100
O525        O  0.41517078  0.89507200  0.50359625    -0.75400
O526        O  0.37549907  0.00417590  0.45773764    -0.81200
O527        O  0.47079275  0.04868730  0.59247013    -0.82900
O528        O  0.54032932  0.90503079  0.57994278    -0.81200
C529        C  0.39736446  0.91856323  0.49995432     0.86900
O530        O  0.48268949  0.90303061  0.53170752    -0.88400
O531        O  0.47124323  0.92765546  0.46650030    -0.88500
O532        O  0.51938062  0.94053594  0.47948487    -0.75500
Mg533      Mg  0.38811290  0.98534002  0.50629587     1.58000
O534        O  0.38706028  0.96995338  0.42036278    -0.82900
H535        H  0.41472156  0.96160518  0.59923041    -0.06600
O536        O  0.50823619  0.96562178  0.54767394    -0.88200
H537        H  0.54208529  0.99135367  0.52847321    -0.06500
H538        H  0.45866113  0.87175221  0.55657185    -0.06600
C539        C  0.51821195  0.99033498  0.53653422     0.86900
C540        C  0.41786530  0.97072645  0.57596389     0.87500
C541        C  0.46876878  0.89480755  0.55563212     0.87500
H542        H  0.50028376  0.94918530  0.43699887    -0.06600
O543        O  0.44763514  0.99617054  0.45626695    -0.75600
Mg544      Mg  0.52826995  0.92325379  0.52992382     1.58000
H545        H  0.45652385  0.03720037  0.47822069    -0.06600
C546        C  0.49363287  0.03825177  0.60855482     0.92500
O547        O  0.52256167  0.93945482  0.61487704    -0.82900
C548        C  0.53819214  0.91533409  0.60784719     0.92600
O549        O  0.36657409  0.02817861  0.52641324    -0.82900
Mg550      Mg  0.42986861  0.94647082  0.44430622     1.58200
O551        O  0.50169211  0.00966602  0.60737189    -0.81200
O552        O  0.44723408  0.86228762  0.44609465    -0.82900
C553        C  0.36613294  0.69768934  0.40617756     0.80100
N554        N  0.34781489  0.69325227  0.38031394    -0.78200
C555        C  0.34019358  0.71803643  0.36170045     0.82500
N556        N  0.35107681  0.74683159  0.36892239    -0.78200
C557        C  0.36939384  0.75140371  0.39412816     0.82600
N558        N  0.37713037  0.72682176  0.41248932    -0.79900
C559        C  0.20594004  0.06873609  0.61923666     0.80100
N560        N  0.20241679  0.09543793  0.63617788    -0.78200
C561        C  0.22763542  0.11399261  0.64210132     0.82500
N562        N  0.25614431  0.10594300  0.63066954    -0.78200
C563        C  0.25976979  0.07954365  0.61383043     0.82600
N564        N  0.23467726  0.06113198  0.60804289    -0.79900
C565        C  0.57631871  0.87759371  0.77965142     0.80100
N566        N  0.56606941  0.88219450  0.74997075    -0.78200
C567        C  0.58315108  0.87208694  0.72524623     0.82500
N568        N  0.61074133  0.85745361  0.73012232    -0.78200
C569        C  0.62115555  0.85202565  0.75946977     0.82600
N570        N  0.60389950  0.86205878  0.78433009    -0.79900
C571        C  0.22751983  0.22957345  0.71226877     0.80100
N572        N  0.25068169  0.25092997  0.70815505    -0.78200
C573        C  0.25415578  0.27537792  0.72812247     0.82500
N574        N  0.23422504  0.27800015  0.75265135    -0.78200
C575        C  0.21113546  0.25693248  0.75718215     0.82600
N576        N  0.20816448  0.23258329  0.73722723    -0.79900
C577        C  0.22526119  0.20129974  0.69200903    -0.00300
C578        C  0.20705030  0.17588598  0.70233791    -0.12200
C579        C  0.20640019  0.14760914  0.68594294     0.02000
C580        C  0.22440282  0.14412553  0.65865915    -0.00400
C581        C  0.24147010  0.16973972  0.64751395    -0.12100
C582        C  0.24180242  0.19817797  0.66351810     0.01800
H583        H  0.19392306  0.17759144  0.72390826     0.14800
H584        H  0.25478730  0.16748949  0.62607424     0.14800
C585        C  0.25901226  0.22352935  0.64954837     0.36500
C586        C  0.18856419  0.12205544  0.69866737     0.36400
N587        N  0.27274808  0.24362266  0.63789232    -0.43900
N588        N  0.17426554  0.10158519  0.70889835    -0.43900
C589        C  0.55288890  0.89872836  0.63390423    -0.00300
C590        C  0.53381865  0.87945487  0.65226163    -0.12200
C591        C  0.54361384  0.86972581  0.68184739     0.02000
C592        C  0.57307924  0.87909554  0.69318480    -0.00400
C593        C  0.59287326  0.89688410  0.67408024    -0.12100
C594        C  0.58274824  0.90721930  0.64480020     0.01800
H595        H  0.51054399  0.87342164  0.64415913     0.14800
H596        H  0.61553718  0.90420034  0.68279528     0.14800
C597        C  0.60226378  0.92839786  0.62735350     0.36500
C598        C  0.52298669  0.85051889  0.70031773     0.36400
N599        N  0.61769792  0.94557819  0.61338504    -0.43900
N600        N  0.50655057  0.83507576  0.71516517    -0.43900
C601        C  0.34634345  0.05696159  0.56850246    -0.00300
C602        C  0.31968877  0.06495079  0.55096052    -0.12200
C603        C  0.29154199  0.07276093  0.56548124     0.02000
C604        C  0.28970322  0.07321000  0.59821432    -0.00400
C605        C  0.31660141  0.06738463  0.61597227    -0.12100
C606        C  0.34482860  0.05895679  0.60146243     0.01800
H607        H  0.32045565  0.06398441  0.52569186     0.14800
H608        H  0.31517345  0.06809729  0.64121900     0.14800
C609        C  0.37093998  0.05043423  0.62106583     0.36500
C610        C  0.26473952  0.08021809  0.54633349     0.36400
N611        N  0.39179408  0.04352422  0.63683974    -0.43900
N612        N  0.24312052  0.08627119  0.53125777    -0.43900
C613        C  0.40763819  0.84185218  0.41471056    -0.00300
C614        C  0.42707470  0.81748134  0.40414765    -0.12200
C615        C  0.41491800  0.78807918  0.39704746     0.02000
C616        C  0.38261695  0.78260434  0.40001341    -0.00400
C617        C  0.36272415  0.80736687  0.40825355    -0.12100
C618        C  0.37496159  0.83681444  0.41593771     0.01800
H619        H  0.45218775  0.82099182  0.40287168     0.14800
H620        H  0.33774048  0.80328450  0.41005457     0.14800
C621        C  0.35381185  0.86042329  0.42746201     0.36500
C622        C  0.43606050  0.76378086  0.38693576     0.36400
N623        N  0.33680602  0.87925426  0.43682457    -0.43900
N624        N  0.45291170  0.74428180  0.37874618    -0.43900
C625        C  0.60051451  0.80119444  0.43231450    -0.00300
C626        C  0.60106839  0.80096951  0.46508541    -0.12200
C627        C  0.58384961  0.82275925  0.48252306     0.02000
C628        C  0.56489693  0.84487171  0.46710351    -0.00400
C629        C  0.56540624  0.84589788  0.43430604    -0.12100
C630        C  0.58328193  0.82460896  0.41689828     0.01800
H631        H  0.61405655  0.78287489  0.47711284     0.14800
H632        H  0.55112156  0.86293511  0.42219578     0.14800
C633        C  0.58172287  0.82587312  0.38328917     0.36500
C634        C  0.58423372  0.82036062  0.51609421     0.36400
N635        N  0.58056796  0.82687553  0.35634686    -0.43900
N636        N  0.58459348  0.81838736  0.54300348    -0.43900
C637        C  0.41048046  0.55704159  0.63011684    -0.00300
C638        C  0.40410610  0.58907585  0.63190017    -0.12200
C639        C  0.39859079  0.60335812  0.66083820     0.02000
C640        C  0.40025296  0.58552886  0.68848902    -0.00400
C641        C  0.40379851  0.55325486  0.68646327    -0.12100
C642        C  0.40802067  0.53877673  0.65764961     0.01800
H643        H  0.40559437  0.60333106  0.61108878     0.14800
H644        H  0.40339660  0.53929367  0.70755042     0.14800
C645        C  0.41085275  0.50516532  0.65736684     0.36500
C646        C  0.39329007  0.63657866  0.66170159     0.36400
N647        N  0.41321972  0.47828899  0.65734347    -0.43900
N648        N  0.38888089  0.66318746  0.66238132    -0.43900
C649        C  0.40494497  0.62290715  0.46240776    -0.00300
C650        C  0.39494906  0.65063676  0.47661035    -0.12200
C651        C  0.38097780  0.67460892  0.45903827     0.02000
C652        C  0.37626308  0.67100420  0.42644514    -0.00400
C653        C  0.38433427  0.64228150  0.41274710    -0.12100
C654        C  0.39892945  0.61860700  0.43028056     0.01800
H655        H  0.39963862  0.65430871  0.50119982     0.14800
H656        H  0.38088620  0.63892729  0.38792058     0.14800
C657        C  0.40844615  0.59030272  0.41467584     0.36500
C658        C  0.37222032  0.70292322  0.47508152     0.36400
N659        N  0.41612940  0.56753610  0.40234456    -0.43900
N660        N  0.36531150  0.72566408  0.48791085    -0.43900
C661        C  0.56621477  0.63115970  0.42181185    -0.00300
C662        C  0.54838853  0.65822039  0.41631590    -0.12200
C663        C  0.56261338  0.68712059  0.41223033     0.02000
C664        C  0.59545340  0.68937694  0.41285002    -0.00400
C665        C  0.61353721  0.66225121  0.41607507    -0.12100
C666        C  0.59926003  0.63324365  0.42099565     0.01800
H667        H  0.52302258  0.65706514  0.41637564     0.14800
H668        H  0.63886771  0.66392687  0.41577024     0.14800
C669        C  0.61909165  0.60665954  0.42705248     0.36500
C670        C  0.54294165  0.71404876  0.40699522     0.36400
N671        N  0.63500154  0.58538585  0.43201817    -0.43900
N672        N  0.52729078  0.73567983  0.40283515    -0.43900
C673        C  0.63615192  0.42913901  0.57008926    -0.00300
C674        C  0.66453780  0.43938577  0.55688669    -0.12200
C675        C  0.69328758  0.43385231  0.57111129     0.02000
C676        C  0.69457109  0.41707616  0.59938530    -0.00400
C677        C  0.66624461  0.40740535  0.61322861    -0.12100
C678        C  0.63715700  0.41372303  0.59917291     0.01800
H679        H  0.66453207  0.45213763  0.53506177     0.14800
H680        H  0.66680615  0.39486313  0.63516220     0.14800
C681        C  0.60902036  0.40411817  0.61511510     0.36500
C682        C  0.72094825  0.44490195  0.55516353     0.36400
N683        N  0.58648305  0.39663486  0.62807228    -0.43900
N684        N  0.74295596  0.45395402  0.54231014    -0.43900
C685        C  0.54509490  0.09368404  0.67543780    -0.00300
C686        C  0.56103333  0.07636932  0.65261679    -0.12200
C687        C  0.54464998  0.05914202  0.63005635     0.02000
C688        C  0.51153673  0.05932537  0.62963948    -0.00400
C689        C  0.49559153  0.07825496  0.65117418    -0.12100
C690        C  0.51201729  0.09514515  0.67408998     0.01800
H691        H  0.58638823  0.07521429  0.65318370     0.14800
H692        H  0.47021676  0.07891534  0.65087371     0.14800
C693        C  0.49442604  0.11407992  0.69575352     0.36500
C694        C  0.56242128  0.04155531  0.60739916     0.36400
N695        N  0.48032038  0.12939503  0.71299986    -0.43900
N696        N  0.57666886  0.02756380  0.58917333    -0.43900
C697        C  0.34870919  0.92739753  0.90795735    -0.00300
C698        C  0.34689187  0.90662936  0.88268400    -0.12200
C699        C  0.31783533  0.89640245  0.87114511     0.02000
C700        C  0.28956012  0.90722604  0.88487003    -0.00400
C701        C  0.29158457  0.92798725  0.91013131    -0.12100
C702        C  0.32043290  0.93817413  0.92159287     0.01800
H703        H  0.36827898  0.89841701  0.87177665     0.14800
H704        H  0.27040104  0.93669209  0.92105473     0.14800
C705        C  0.31985379  0.96103328  0.94640057     0.36500
C706        C  0.31809106  0.87559068  0.84465877     0.36400
N707        N  0.31916604  0.97939744  0.96618802    -0.43900
N708        N  0.31844114  0.85889362  0.82343747    -0.43900
C709        C  0.52314341  0.92636733  0.85094084    -0.00300
C710        C  0.55555665  0.92143709  0.85456957    -0.12200
C711        C  0.57310182  0.90458309  0.83261147     0.02000
C712        C  0.55828823  0.89178931  0.80604866    -0.00400
C713        C  0.52560975  0.89557188  0.80306124    -0.12100
C714        C  0.50805147  0.91255187  0.82510947     0.01800
H715        H  0.56762241  0.93183424  0.87425174     0.14800
H716        H  0.51378433  0.88599206  0.78283721     0.14800
C717        C  0.47507607  0.91713809  0.81943969     0.36500
C718        C  0.60659313  0.90307086  0.83692901     0.36400
N719        N  0.44864730  0.92082460  0.81480836    -0.43900
N720        N  0.63343001  0.90207738  0.84046890    -0.43900
C721        C  0.56299153  0.10310497  0.78883884    -0.00300
C722        C  0.54360930  0.07724210  0.79363386    -0.12200
C723        C  0.53684096  0.06656105  0.82362532     0.02000
C724        C  0.54968875  0.08187391  0.85008822    -0.00400
C725        C  0.56814737  0.10843566  0.84544818    -0.12100
C726        C  0.57494495  0.11912008  0.81529610     0.01800
H727        H  0.53401076  0.06480391  0.77379042     0.14800
H728        H  0.57747181  0.12083259  0.86544634     0.14800
C729        C  0.59373259  0.14693779  0.81254957     0.36500
C730        C  0.51575677  0.04032257  0.82611756     0.36400
N731        N  0.60883293  0.16922144  0.81052049    -0.43900
N732        N  0.49886555  0.01931992  0.82783983    -0.43900
C733        C  0.40370045  0.14132761  0.05575664    -0.00300
C734        C  0.37393663  0.14574752  0.06902402    -0.12200
C735        C  0.36232783  0.17578848  0.07525625     0.02000
C736        C  0.38033973  0.20242915  0.06768236    -0.00400
C737        C  0.40974028  0.19817238  0.05404066    -0.12100
C738        C  0.42168586  0.16831449  0.04830991     0.01800
H739        H  0.35957970  0.12567741  0.07455739     0.14800
H740        H  0.42398359  0.21838072  0.04860781     0.14800
C741        C  0.45242376  0.16684306  0.03432684     0.36500
C742        C  0.33151843  0.17855274  0.08883239     0.36400
N743        N  0.47708872  0.16636908  0.02318054    -0.43900
N744        N  0.30684721  0.18074859  0.09977003    -0.43900
C745        C  0.91821694  0.34719743  0.91365285    -0.00300
C746        C  0.93516480  0.31986779  0.90681755    -0.12200
C747        C  0.91998581  0.29142636  0.90194227     0.02000
C748        C  0.88706871  0.28993041  0.90327157    -0.00400
C749        C  0.86989522  0.31743252  0.90798271    -0.12100
C750        C  0.88510421  0.34587089  0.91364650     0.01800
H751        H  0.96054779  0.32042531  0.90654178     0.14800
H752        H  0.84454247  0.31637797  0.90885063     0.14800
C753        C  0.86617322  0.37242040  0.92222796     0.36500
C754        C  0.93873825  0.26410130  0.89553541     0.36400
N755        N  0.85099788  0.39358351  0.92947114    -0.43900
N756        N  0.95366621  0.24215856  0.89039894    -0.43900
C757        C  0.79086417  0.57010547  0.08610977    -0.00300
C758        C  0.81926516  0.57275585  0.10236498    -0.12200
C759        C  0.84799667  0.56713456  0.08763823     0.02000
C760        C  0.84857957  0.55827389  0.05585525    -0.00400
C761        C  0.81998976  0.55687209  0.03943309    -0.12100
C762        C  0.79142376  0.56245478  0.05418248     0.01800
H763        H  0.81896352  0.57849924  0.12694786     0.14800
H764        H  0.81966798  0.55055285  0.01494201     0.14800
C765        C  0.76314963  0.56056443  0.03578068     0.36500
C766        C  0.87613684  0.57005713  0.10605140     0.36400
N767        N  0.74044971  0.55894768  0.02115193    -0.43900
N768        N  0.89862861  0.57255402  0.12087828    -0.43900
C769        C  0.05700513  0.41327285  0.13698549    -0.00300
C770        C  0.04956616  0.42887213  0.16509188    -0.12200
C771        C  0.05673996  0.41642267  0.19422080     0.02000
C772        C  0.07268438  0.38773386  0.19635245    -0.00400
C773        C  0.08172323  0.37262338  0.16851892    -0.12100
C774        C  0.07375057  0.38487130  0.13902110     0.01800
H775        H  0.03719082  0.45094410  0.16468573     0.14800
H776        H  0.09429901  0.35069494  0.16979576     0.14800
C777        C  0.08253614  0.36747080  0.11156961     0.36500
C778        C  0.04747968  0.43403820  0.22148393     0.36400
N779        N  0.08962089  0.35337872  0.08963756    -0.43900
N780        N  0.03980282  0.44794373  0.24333615    -0.43900
C781        C  0.81531561  0.55168249  0.86989835    -0.00300
C782        C  0.81527125  0.51898572  0.86726639    -0.12200
C783        C  0.83909030  0.50077644  0.88083967     0.02000
C784        C  0.86319325  0.51524581  0.89809356    -0.00400
C785        C  0.86392500  0.54800932  0.89944237    -0.12100
C786        C  0.84052504  0.56620323  0.88544570     0.01800
H787        H  0.79599433  0.50757163  0.85543539     0.14800
H788        H  0.88211720  0.55944328  0.91287839     0.14800
C789        C  0.84147171  0.59956838  0.88988615     0.36500
C790        C  0.83689842  0.46730224  0.87869297     0.36400
N791        N  0.84211283  0.62629706  0.89350072    -0.43900
N792        N  0.83502365  0.44047019  0.87676329    -0.43900
C793        C  0.59478901  0.18591855  0.05743488    -0.00300
C794        C  0.58958347  0.18925939  0.02516984    -0.12200
C795        C  0.57322553  0.16646346  0.00803722     0.02000
C796        C  0.56091768  0.14006930  0.02343770    -0.00400
C797        C  0.56784873  0.13596742  0.05524711    -0.12100
C798        C  0.58462463  0.15830405  0.07218406     0.01800
H799        H  0.59758176  0.21017896  0.01346122     0.14800
H800        H  0.55897773  0.11563362  0.06737559     0.14800
C801        C  0.58871548  0.15327096  0.10523508     0.36500
C802        C  0.56798428  0.17165485  0.97520901     0.36400
N803        N  0.59197984  0.14927543  0.13172110    -0.43900
N804        N  0.56400415  0.17578929  0.94884194    -0.43900
C805        C  0.28145157  0.29693384  0.72502060    -0.00300
C806        C  0.30493425  0.29014582  0.70283958    -0.12200
C807        C  0.33257726  0.30770863  0.70111064     0.02000
C808        C  0.33714646  0.33285956  0.72176083    -0.00400
C809        C  0.31321840  0.34056318  0.74284418    -0.12100
C810        C  0.28583771  0.32304052  0.74489223     0.01800
H811        H  0.30243699  0.27024156  0.68751447     0.14800
H812        H  0.31620472  0.36017898  0.75856929     0.14800
C813        C  0.26360635  0.33232524  0.76856020     0.36500
C814        C  0.35653253  0.29812436  0.67936194     0.36400
N815        N  0.24627546  0.33994691  0.78787725    -0.43900
N816        N  0.37575122  0.29038390  0.66196437    -0.43900
C817        C  0.43112432  0.38281182  0.67530764    -0.00300
C818        C  0.41591956  0.39427567  0.64870839    -0.12200
C819        C  0.43295142  0.40780951  0.62429511     0.02000
C820        C  0.46597749  0.40963177  0.62592986    -0.00400
C821        C  0.48137019  0.39580241  0.65128796    -0.12100
C822        C  0.46423528  0.38261724  0.67597553     0.01800
H823        H  0.39054909  0.39424193  0.64772273     0.14800
H824        H  0.50668790  0.39693209  0.65272823     0.14800
C825        C  0.48111484  0.36911348  0.70179392     0.36500
C826        C  0.41591166  0.42057399  0.59815178     0.36400
N827        N  0.49459336  0.35811895  0.72244285    -0.43900
N828        N  0.40230391  0.43085098  0.57721628    -0.43900
C829        C  0.63137998  0.51930489  0.06858149    -0.00300
C830        C  0.63170964  0.55207037  0.06752188    -0.12200
C831        C  0.65474906  0.56928547  0.08320098     0.02000
C832        C  0.67839668  0.55366587  0.09996292    -0.00400
C833        C  0.67723395  0.52100861  0.10229876    -0.12100
C834        C  0.65379467  0.50378990  0.08711312     0.01800
H835        H  0.61461826  0.56422066  0.05330380     0.14800
H836        H  0.69557454  0.50882608  0.11484438     0.14800
C837        C  0.65493800  0.47019777  0.08869415     0.36500
C838        C  0.65525388  0.60272347  0.07942943     0.36400
N839        N  0.65589924  0.44326862  0.08993178    -0.43900
N840        N  0.65576580  0.62951648  0.07639495    -0.43900
C841        C  0.64402468  0.56036283  0.90800577    -0.00300
C842        C  0.67155651  0.56345317  0.92587174    -0.12200
C843        C  0.70051080  0.56918226  0.91195837     0.02000
C844        C  0.70260057  0.57247626  0.87940313    -0.00400
C845        C  0.67509989  0.57138525  0.86146321    -0.12100
C846        C  0.64594128  0.56508044  0.87536553     0.01800
H847        H  0.67072301  0.56062436  0.95098961     0.14800
H848        H  0.67654606  0.57467066  0.83642902     0.14800
C849        C  0.61888567  0.56234861  0.85539120     0.36500
C850        C  0.72769848  0.57238614  0.93174225     0.36400
N851        N  0.59723175  0.56017247  0.83932521    -0.43900
N852        N  0.74958741  0.57506216  0.94739853    -0.43900
C853        C  0.38248036  0.31661298  0.05064611    -0.00300
C854        C  0.39893049  0.34069963  0.06552114    -0.12200
C855        C  0.41357409  0.36435785  0.04825396     0.02000
C856        C  0.41157414  0.36468299  0.01526757    -0.00400
C857        C  0.39300601  0.34206149  0.00052958    -0.12100
C858        C  0.37870761  0.31806162  0.01784949     0.01800
H859        H  0.40179240  0.34016764  0.09064573     0.14800
H860        H  0.39111406  0.34205806  0.97531296     0.14800
C861        C  0.36031211  0.29514425  0.00140556     0.36500
C862        C  0.43131072  0.38766846  0.06496750     0.36400
N863        N  0.34543873  0.27685582  0.98822704    -0.43900
N864        N  0.44560166  0.40629388  0.07832039    -0.43900
C865        C  0.56410383  0.35463434  0.06496720    -0.00300
C866        C  0.59617478  0.35326719  0.07219668    -0.12200
C867        C  0.61021188  0.32498375  0.08111637     0.02000
C868        C  0.59207774  0.29750020  0.08243901    -0.00400
C869        C  0.55978039  0.29939650  0.07762703    -0.12100
C870        C  0.54559784  0.32753647  0.06952580     0.01800
H871        H  0.61066689  0.37375336  0.06903221     0.14800
H872        H  0.54554465  0.27857554  0.07980034     0.14800
C873        C  0.51200958  0.32744391  0.06529622     0.36500
C874        C  0.64352248  0.32433989  0.08662583     0.36400
N875        N  0.48515320  0.32716945  0.06178916    -0.43900
N876        N  0.67022912  0.32383999  0.09108361    -0.43900
C877        C  0.43687286  0.59548963  0.79720589    -0.00300
C878        C  0.46250362  0.57641946  0.78882650    -0.12200
C879        C  0.48287294  0.56407238  0.81123978     0.02000
C880        C  0.47855909  0.57100504  0.84304405    -0.00400
C881        C  0.45430632  0.59134521  0.85163587    -0.12100
C882        C  0.43358152  0.60366729  0.82920197     0.01800
H883        H  0.46621048  0.56997890  0.76465898     0.14800
H884        H  0.45045815  0.59624783  0.87616151     0.14800
C885        C  0.40859650  0.62348482  0.84020728     0.36500
C886        C  0.50726265  0.54296084  0.80118008     0.36400
N887        N  0.38861022  0.63936322  0.84919868    -0.43900
N888        N  0.52676091  0.52599285  0.79318101    -0.43900
C889        C  0.41973627  0.42367375  0.84421975    -0.00300
C890        C  0.41282227  0.39171814  0.84362747    -0.12200
C891        C  0.40586221  0.37670068  0.81537794     0.02000
C892        C  0.40687210  0.39361482  0.78710537    -0.00400
C893        C  0.41134240  0.42585556  0.78803635    -0.12100
C894        C  0.41678391  0.44111067  0.81626065     0.01800
H895        H  0.41458475  0.37811960  0.86485448     0.14800
H896        H  0.41022711  0.43925120  0.76661441     0.14800
C897        C  0.41941765  0.47472618  0.81570897     0.36500
C898        C  0.39920619  0.34372676  0.81588184     0.36400
N899        N  0.42138545  0.50162825  0.81518925    -0.43900
N900        N  0.39361775  0.31734619  0.81637266    -0.43900
C901        C  0.30817033  0.05233398  0.37907839    -0.00300
C902        C  0.33657767  0.06499660  0.38958278    -0.12200
C903        C  0.35912971  0.04620155  0.40432866     0.02000
C904        C  0.35392846  0.01386145  0.40807416    -0.00400
C905        C  0.32674432  0.00076629  0.39528159    -0.12100
C906        C  0.30382885  0.01966164  0.38119294     0.01800
H907        H  0.34033661  0.08994807  0.38812727     0.14800
H908        H  0.32245572  0.97601138  0.39805187     0.14800
C909        C  0.27567723  0.00501027  0.36975181     0.36500
C910        C  0.38709194  0.06079262  0.41632856     0.36400
N911        N  0.25309643  0.99326707  0.36061114    -0.43900
N912        N  0.40950967  0.07249854  0.42590894    -0.43900
C913        C  0.92334548  0.92157484  0.35304776    -0.00300
C914        C  0.91875327  0.88919721  0.35146101    -0.12200
C915        C  0.91025473  0.87493966  0.32328393     0.02000
C916        C  0.90673422  0.89324178  0.29617960    -0.00400
C917        C  0.90919613  0.92565422  0.29826018    -0.12100
C918        C  0.91683519  0.93999442  0.32640849     0.01800
H919        H  0.92359689  0.87481591  0.37167608     0.14800
H920        H  0.90512271  0.93986260  0.27773323     0.14800
C921        C  0.91811435  0.97367911  0.32705854     0.36500
C922        C  0.90723910  0.84143322  0.32232937     0.36400
N923        N  0.91912702  0.00063638  0.32749783    -0.43900
N924        N  0.90478922  0.81458211  0.32156689    -0.43900
C925        C  0.08570946  0.84307869  0.54722398    -0.00300
C926        C  0.10037015  0.83948679  0.57613039    -0.12200
C927        C  0.11279122  0.81047082  0.58506975     0.02000
C928        C  0.11076318  0.78435551  0.56452286    -0.00400
C929        C  0.09810725  0.78905598  0.53471019    -0.12100
C930        C  0.08569573  0.81781791  0.52599213     0.01800
H931        H  0.10064680  0.85887999  0.59238483     0.14800
H932        H  0.09707843  0.76995222  0.51816687     0.14800
C933        C  0.07255712  0.82058495  0.49503363     0.36500
C934        C  0.12610399  0.80840892  0.61593980     0.36400
N935        N  0.06193490  0.82272867  0.47030574    -0.43900
N936        N  0.13671701  0.80714062  0.64073577    -0.43900
C937        C  0.13424047  0.01273593  0.57699443    -0.00300
C938        C  0.12935456  0.04486535  0.58127418    -0.12200
C939        C  0.15105582  0.06329059  0.59746545     0.02000
C940        C  0.17869358  0.04961581  0.60930736    -0.00400
C941        C  0.18248793  0.01709972  0.60682969    -0.12100
C942        C  0.16049040  0.99861810  0.59103422     0.01800
H943        H  0.10916653  0.05589192  0.57059828     0.14800
H944        H  0.20356362  0.00629166  0.61589327     0.14800
C945        C  0.16691088  0.96581005  0.58708103     0.36500
C946        C  0.14565571  0.09648949  0.59900183     0.36400
N947        N  0.17212353  0.93952813  0.58384740    -0.43900
N948        N  0.14133741  0.12309909  0.60022357    -0.43900
C949        C  0.14115591  0.07066854  0.42369508    -0.00300
C950        C  0.16968441  0.06862347  0.44016053    -0.12200
C951        C  0.19828842  0.07550472  0.42609308     0.02000
C952        C  0.19921102  0.08525109  0.39476024    -0.00400
C953        C  0.17076035  0.09043022  0.37903710    -0.12100
C954        C  0.14183486  0.08326875  0.39319142     0.01800
H955        H  0.17003670  0.06034491  0.46403933     0.14800
H956        H  0.17116445  0.09900451  0.35526355     0.14800
C957        C  0.11353359  0.08882325  0.37575829     0.36500
C958        C  0.22642091  0.07241085  0.44455284     0.36400
N959        N  0.09085614  0.09369024  0.36185082    -0.43900
N960        N  0.24903459  0.06992308  0.45918681    -0.43900
C961        C  0.89028257  0.80274252  0.54816782    -0.00300
C962        C  0.90301595  0.79602626  0.51853966    -0.12200
C963        C  0.91858359  0.81888919  0.50096287     0.02000
C964        C  0.92192925  0.84933043  0.51281650    -0.00400
C965        C  0.90850445  0.85656052  0.54179043    -0.12100
C966        C  0.89255243  0.83385202  0.55933957     0.01800
H967        H  0.90133525  0.77260112  0.50917483     0.14800
H968        H  0.91130591  0.87987898  0.55118924     0.14800
C969        C  0.88018175  0.84308712  0.58928873     0.36500
C970        C  0.93180522  0.81036409  0.47115314     0.36400
N971        N  0.87019849  0.85062109  0.61323836    -0.43900
N972        N  0.94234155  0.80360030  0.44721415    -0.43900
C973        C  0.00964799  0.56817785  0.12525216    -0.00300
C974        C  0.99534849  0.57274534  0.15427591    -0.12200
C975        C  0.01176763  0.58647045  0.17909148     0.02000
C976        C  0.04338673  0.59585298  0.17513615    -0.00400
C977        C  0.05680418  0.59325655  0.14526278    -0.12100
C978        C  0.04030938  0.57934820  0.12053811     0.01800
H979        H  0.97175141  0.56420463  0.15801175     0.14800
H980        H  0.08081665  0.60052048  0.14156887     0.14800
C981        C  0.05560991  0.57577411  0.09072279     0.36500
C982        C  0.99555157  0.59021066  0.20841972     0.36400
N983        N  0.06772497  0.57296682  0.06674089    -0.43900
N984        N  0.98252049  0.59316091  0.23190708    -0.43900
C985        C  0.67576075  0.42780388  0.38364032    -0.00300
C986        C  0.64743384  0.41379139  0.39247100    -0.12200
C987        C  0.62311316  0.43146598  0.40569739     0.02000
C988        C  0.62645891  0.46400829  0.40968318    -0.00400
C989        C  0.65366630  0.47844916  0.39844059    -0.12100
C990        C  0.67828431  0.46066785  0.38567535     0.01800
H991        H  0.64496142  0.38868661  0.39081411     0.14800
H992        H  0.65651934  0.50339798  0.40137581     0.14800
C993        C  0.70602707  0.47666471  0.37511496     0.36500
C994        C  0.59523859  0.41552832  0.41606497     0.36400
N995        N  0.72822431  0.48949612  0.36653810    -0.43900
N996        N  0.57288106  0.40279247  0.42436464    -0.43900
C997        C  0.07325215  0.62360047  0.51134843    -0.00300
C998        C  0.08744562  0.64844147  0.49549251    -0.12200
C999        C  0.10335727  0.67209699  0.51189854     0.02000
C1000       C  0.10590558  0.67083490  0.54488826    -0.00400
C1001       C  0.09344610  0.64482068  0.56036595    -0.12100
C1002       C  0.07691682  0.62167588  0.54406782     0.01800
H1003       H  0.08472185  0.65024607  0.47041295     0.14800
H1004       H  0.09512281  0.64334689  0.58555505     0.14800
C1005       C  0.06326865  0.59639698  0.56160808     0.36500
C1006       C  0.11655777  0.69752638  0.49424527     0.36400
N1007       N  0.05228514  0.57617205  0.57567168    -0.43900
N1008       N  0.12706921  0.71789180  0.48001737    -0.43900
C1009       C  0.89032543  0.69111659  0.57537295    -0.00300
C1010       C  0.92292152  0.68872874  0.57381839    -0.12200
C1011       C  0.93751221  0.66002145  0.56890406     0.02000
C1012       C  0.91928571  0.63278807  0.56422343    -0.00400
C1013       C  0.88665343  0.63478840  0.56800408    -0.12100
C1014       C  0.87209555  0.66366822  0.57378921     0.01800
H1015       H  0.93713413  0.70952628  0.57635829     0.14800
H1016       H  0.87234163  0.61421945  0.56451236     0.14800
C1017       C  0.83839580  0.66477769  0.57593418     0.36500
C1018       C  0.97135103  0.65948123  0.56817377     0.36400
N1019       N  0.81137192  0.66554092  0.57764395    -0.43900
N1020       N  0.99843277  0.65917749  0.56751977    -0.43900
C1021       C  0.04744935  0.37472697  0.30795786    -0.00300
C1022       C  0.06013619  0.37717829  0.33819406    -0.12200
C1023       C  0.04269610  0.39022624  0.36292139     0.02000
C1024       C  0.01184865  0.40092812  0.35787142    -0.00400
C1025       C  0.99824820  0.39613938  0.32856615    -0.12100
C1026       C  0.01546080  0.38305425  0.30384430     0.01800
H1027       H  0.08426056  0.37046790  0.34224670     0.14800
H1028       H  0.97452153  0.40419222  0.32447551     0.14800
C1029       C  0.99956153  0.37908747  0.27439200     0.36500
C1030       C  0.05711750  0.39315358  0.39320921     0.36400
N1031       N  0.98675489  0.37599789  0.25081376    -0.43900
N1032       N  0.06850500  0.39526681  0.41760018    -0.43900
C1033       C  0.07197978  0.58395061  0.28585091    -0.00300
C1034       C  0.07594316  0.60133667  0.31339572    -0.12200
C1035       C  0.06973584  0.58819970  0.34276460     0.02000
C1036       C  0.05952683  0.55690499  0.34482822    -0.00400
C1037       C  0.05827312  0.53902551  0.31718642    -0.12100
C1038       C  0.06416344  0.55218858  0.28805344     0.01800
H1039       H  0.08293146  0.62558532  0.31190873     0.14800
H1040       H  0.05163975  0.51464903  0.31803890     0.14800
C1041       C  0.06261232  0.53236135  0.26082771     0.36500
C1042       C  0.07321255  0.60769942  0.36998870     0.36400
N1043       N  0.06151397  0.51666833  0.23888968    -0.43900
N1044       N  0.07618733  0.62339872  0.39175388    -0.43900
C1045       C  0.85654795  0.46679084  0.57926320    -0.00300
C1046       C  0.86060489  0.43501744  0.58613962    -0.12200
C1047       C  0.83711243  0.41777971  0.60134977     0.02000
C1048       C  0.80824882  0.43214155  0.60906577    -0.00400
C1049       C  0.80511370  0.46443493  0.60370758    -0.12100
C1050       C  0.82889652  0.48172416  0.58917060     0.01800
H1051       H  0.88178097  0.42331680  0.57847945     0.14800
H1052       H  0.78337363  0.47606680  0.60969830     0.14800
C1053       C  0.82332178  0.51420993  0.58236347     0.36500
C1054       C  0.84268257  0.38505498  0.60682799     0.36400
N1055       N  0.81888928  0.54023894  0.57684303    -0.43900
N1056       N  0.84727021  0.35886121  0.61138075    -0.43900
C1057       C  0.84592892  0.41214863  0.42576385    -0.00300
C1058       C  0.81818663  0.41375390  0.44363146    -0.12200
C1059       C  0.78890847  0.40765045  0.43060162     0.02000
C1060       C  0.78667196  0.39902675  0.39903174    -0.00400
C1061       C  0.81435181  0.39451697  0.38177897    -0.12100
C1062       C  0.84385557  0.40105669  0.39475720     0.01800
H1063       H  0.81905427  0.42101745  0.46785035     0.14800
H1064       H  0.81285894  0.38685319  0.35771265     0.14800
C1065       C  0.87119614  0.39698549  0.37539423     0.36500
C1066       C  0.76162857  0.40997299  0.45041660     0.36400
N1067       N  0.89304139  0.39349570  0.35979981    -0.43900
N1068       N  0.73987679  0.41179387  0.46641329    -0.43900
C1069       C  0.29868748  0.92966452  0.09390250    -0.00300
C1070       C  0.32723363  0.91546734  0.08622610    -0.12200
C1071       C  0.35109345  0.93224606  0.07138027     0.02000
C1072       C  0.34677503  0.96413342  0.06367678    -0.00400
C1073       C  0.31943785  0.97910496  0.07399784    -0.12100
C1074       C  0.29553538  0.96222343  0.08904470     0.01800
H1075       H  0.33040398  0.89072786  0.09035423     0.14800
H1076       H  0.31597279  0.00360571  0.06885698     0.14800
C1077       C  0.26806186  0.97890254  0.09938079     0.36500
C1078       C  0.37962700  0.91581902  0.06366919     0.36400
N1079       N  0.24612150  0.99226391  0.10791650    -0.43900
N1080       N  0.40246070  0.90265985  0.05746049    -0.43900
C1081       C  0.97256811  0.07412247  0.36030510    -0.00300
C1082       C  0.94084370  0.08070467  0.36591323    -0.12200
C1083       C  0.92146440  0.09299851  0.34239684     0.02000
C1084       C  0.93372139  0.09859105  0.31217495    -0.00400
C1085       C  0.96584587  0.09303021  0.30712990    -0.12100
C1086       C  0.98510860  0.08083952  0.33068604     0.01800
H1087       H  0.93078429  0.07473799  0.38835504     0.14800
H1088       H  0.97583654  0.09714420  0.28425536     0.14800
C1089       C  0.01697914  0.07272283  0.32298981     0.36500
C1090       C  0.88870583  0.09730795  0.34948224     0.36400
N1091       N  0.04239800  0.06592481  0.31659656    -0.43900
N1092       N  0.86245394  0.10069975  0.35524960    -0.43900
C1093       C  0.16073082  0.25501976  0.84383239    -0.00300
C1094       C  0.15987741  0.28206740  0.82534421    -0.12200
C1095       C  0.17612816  0.28340210  0.79688929     0.02000
C1096       C  0.19321540  0.25723265  0.78649710    -0.00400
C1097       C  0.19475690  0.23067105  0.80524423    -0.12100
C1098       C  0.17929441  0.22948520  0.83384602     0.01800
H1099       H  0.14575582  0.30180107  0.83261041     0.14800
H1100       H  0.20880001  0.21091537  0.79778515     0.14800
C1101       C  0.18431549  0.20217013  0.85285377     0.36500
C1102       C  0.17374233  0.31118856  0.77811039     0.36400
N1103       N  0.18904880  0.18019970  0.86775143    -0.43900
N1104       N  0.17177924  0.33344892  0.76302420    -0.43900
C1105       C  0.07587259  0.35227826  0.96653241    -0.00300
C1106       C  0.08802435  0.32654386  0.98261012    -0.12200
C1107       C  0.10174261  0.30156192  0.96636416     0.02000
C1108       C  0.10447300  0.30261470  0.93347787    -0.00400
C1109       C  0.09475076  0.32958745  0.91776195    -0.12100
C1110       C  0.07999943  0.35400016  0.93383849     0.01800
H1111       H  0.08473765  0.32488822  0.00763680     0.14800
H1112       H  0.09671465  0.33071076  0.89256616     0.14800
C1113       C  0.06793481  0.37992437  0.91602342     0.36500
C1114       C  0.11192211  0.27472388  0.98392487     0.36400
N1115       N  0.05811206  0.40054155  0.90164750    -0.43900
N1116       N  0.11991317  0.25316823  0.99803878    -0.43900
C1117       C  0.12579405  0.95613283  0.91652094    -0.00300
C1118       C  0.15259917  0.97268548  0.90745830    -0.12200
C1119       C  0.17739296  0.95773134  0.89184406     0.02000
C1120       C  0.17550932  0.92553326  0.88445990    -0.00400
C1121       C  0.14761457  0.90968620  0.89131369    -0.12100
C1122       C  0.12308003  0.92448280  0.90734933     0.01800
H1123       H  0.15500712  0.99695508  0.91413964     0.14800
H1124       H  0.14552935  0.88514336  0.88560467     0.14800
C1125       C  0.09559468  0.90632166  0.91468386     0.36500
C1126       C  0.20467733  0.97600066  0.88414076     0.36400
N1127       N  0.07362384  0.89174949  0.92066613    -0.43900
N1128       N  0.22660262  0.99059148  0.87804361    -0.43900
C1129       C  0.12402327  0.91815467  0.06991303    -0.00300
C1130       C  0.14980990  0.92563604  0.05081629    -0.12200
C1131       C  0.18048660  0.91890144  0.05986320     0.02000
C1132       C  0.18612570  0.90401609  0.08862373    -0.00400
C1133       C  0.16040469  0.89523728  0.10714835    -0.12100
C1134       C  0.12961456  0.90227061  0.09820912     0.01800
H1135       H  0.14622041  0.93772290  0.02890722     0.14800
H1136       H  0.16437527  0.88337501  0.12911431     0.14800
C1137       C  0.10444805  0.89266766  0.11847458     0.36500
C1138       C  0.20552158  0.92707710  0.03874619     0.36400
N1139       N  0.08439844  0.88481258  0.13480890    -0.43900
N1140       N  0.22545283  0.93369154  0.02171663    -0.43900
C1141       C  0.91358885  0.13415180  0.96240806    -0.00300
C1142       C  0.90581948  0.12997442  0.93076308    -0.12200
C1143       C  0.88855843  0.15233700  0.91430623     0.02000
C1144       C  0.87798414  0.17945528  0.92963817    -0.00400
C1145       C  0.88410934  0.18283935  0.96172741    -0.12100
C1146       C  0.90172964  0.16056572  0.97815537     0.01800
H1147       H  0.91479137  0.10985279  0.91826985     0.14800
H1148       H  0.87645510  0.20382006  0.97365609     0.14800
C1149       C  0.90971003  0.16696566  0.01021004     0.36500
C1150       C  0.88541967  0.14849467  0.88102043     0.36400
N1151       N  0.91629207  0.17233690  0.03582356    -0.43900
N1152       N  0.88354031  0.14534195  0.85428504    -0.43900
C1153       C  0.07082281  0.12964151  0.92217317    -0.00300
C1154       C  0.05335763  0.15649223  0.92995230    -0.12200
C1155       C  0.06469960  0.18648280  0.92394021     0.02000
C1156       C  0.09442796  0.19026667  0.91013555    -0.00400
C1157       C  0.11127152  0.16351376  0.90119138    -0.12100
C1158       C  0.09981825  0.13350161  0.90686223     0.01800
H1159       H  0.03081505  0.15422250  0.94135831     0.14800
H1160       H  0.13375861  0.16595591  0.88987691     0.14800
C1161       C  0.11817605  0.10731694  0.89614042     0.36500
C1162       C  0.04471891  0.21274048  0.93108153     0.36400
N1163       N  0.13287920  0.08640222  0.88735232    -0.43900
N1164       N  0.02860040  0.23374351  0.93658659    -0.43900
C1165       C  0.92328601  0.89060325  0.18314228    -0.00300
C1166       C  0.95575828  0.89575078  0.18469260    -0.12200
C1167       C  0.97168555  0.91111207  0.16057885     0.02000
C1168       C  0.95497482  0.92182676  0.13430310    -0.00400
C1169       C  0.92280296  0.91531162  0.13211984    -0.12100
C1170       C  0.90689786  0.89995320  0.15612249     0.01800
H1171       H  0.96857297  0.88869747  0.20534639     0.14800
H1172       H  0.90966996  0.92355109  0.11210394     0.14800
C1173       C  0.87335705  0.89666739  0.15345878     0.36500
C1174       C  0.00451678  0.91785302  0.16467251     0.36400
N1175       N  0.84646894  0.89418422  0.15136036    -0.43900
N1176       N  0.03079509  0.92340837  0.16803692    -0.43900
C1177       C  0.91271599  0.09563175  0.19842014    -0.00300
C1178       C  0.90561238  0.11561812  0.17341349    -0.12200
C1179       C  0.91130171  0.10686514  0.14239442     0.02000
C1180       C  0.92423528  0.07725926  0.13569108    -0.00400
C1181       C  0.93104906  0.05720211  0.16091299    -0.12100
C1182       C  0.92549785  0.06605060  0.19188054     0.01800
H1183       H  0.89550891  0.13835016  0.17813345     0.14800
H1184       H  0.94110498  0.03438199  0.15660111     0.14800
C1185       C  0.93188176  0.04372296  0.21626411     0.36500
C1186       C  0.90299855  0.12866868  0.11820197     0.36400
N1187       N  0.93692110  0.02575453  0.23574078    -0.43900
N1188       N  0.89613107  0.14637196  0.09906142    -0.43900
C1189       C  0.19401226  0.71960978  0.69563607    -0.00300
C1190       C  0.20405221  0.69995795  0.67108452    -0.12200
C1191       C  0.18646301  0.69669246  0.64354204     0.02000
C1192       C  0.15821695  0.71325985  0.64009391    -0.00400
C1193       C  0.14713495  0.73109585  0.66523498    -0.12100
C1194       C  0.16442222  0.73430587  0.69276275     0.01800
H1195       H  0.22635382  0.68800915  0.67274486     0.14800
H1196       H  0.12510564  0.74349413  0.66293894     0.14800
C1197       C  0.15096159  0.75310429  0.71730959     0.36500
C1198       C  0.19891724  0.67799378  0.61841726     0.36400
N1199       N  0.14004137  0.76820477  0.73688448    -0.43900
N1200       N  0.20884703  0.66300334  0.59824650    -0.43900
C1201       C  0.22514466  0.78112924  0.78916969    -0.00300
C1202       C  0.20886014  0.80779004  0.77887334    -0.12200
C1203       C  0.20650073  0.83456142  0.79772695     0.02000
C1204       C  0.22112347  0.83517037  0.82720855    -0.00400
C1205       C  0.23590215  0.80813080  0.83811627    -0.12100
C1206       C  0.23742971  0.78112705  0.81986559     0.01800
H1207       H  0.19879865  0.80816449  0.75567183     0.14800
H1208       H  0.24650346  0.80817732  0.86110751     0.14800
C1209       C  0.25098278  0.75360767  0.83380441     0.36500
C1210       C  0.19038746  0.86156018  0.78568410     0.36400
N1211       N  0.26161394  0.73149866  0.84506283    -0.43900
N1212       N  0.17732774  0.88315173  0.77607669    -0.43900
C1213       C  0.28744466  0.68958466  0.75659406    -0.00300
C1214       C  0.28490982  0.65893994  0.74543308    -0.12200
C1215       C  0.31011192  0.63830233  0.74700446     0.02000
C1216       C  0.33890432  0.64809875  0.75990922    -0.00400
C1217       C  0.34111757  0.67798756  0.77287604    -0.12100
C1218       C  0.31577264  0.69884159  0.77125202     0.01800
H1219       H  0.26321221  0.65108184  0.73492717     0.14800
H1220       H  0.36326198  0.68572579  0.78251189     0.14800
C1221       C  0.32048343  0.73006139  0.78291699     0.36500
C1222       C  0.30591431  0.60721589  0.73463836     0.36400
N1223       N  0.32446562  0.75505175  0.79229476    -0.43900
N1224       N  0.30259002  0.58236786  0.72464671    -0.43900
C1225       C  0.69003001  0.19067511  0.72163993    -0.00300
C1226       C  0.69058001  0.16137574  0.73629433    -0.12200
C1227       C  0.66512788  0.14098536  0.73429411     0.02000
C1228       C  0.63824665  0.14951758  0.71717722    -0.00400
C1229       C  0.63828897  0.17769749  0.70073863    -0.12100
C1230       C  0.66370838  0.19837502  0.70290277     0.01800
H1231       H  0.71068799  0.15460284  0.75015948     0.14800
H1232       H  0.61752418  0.18455433  0.68789923     0.14800
C1233       C  0.66068338  0.22813587  0.68755563     0.36500
C1234       C  0.66692491  0.11154879  0.75054627     0.36400
N1235       N  0.65777549  0.25192270  0.67519316    -0.43900
N1236       N  0.66834630  0.08795725  0.76352615    -0.43900
C1237       C  0.77105314  0.23000926  0.79373731    -0.00300
C1238       C  0.78101360  0.20122404  0.80582764    -0.12200
C1239       C  0.79932557  0.19968345  0.83311347     0.02000
C1240       C  0.80881154  0.22753868  0.84825705    -0.00400
C1241       C  0.79633801  0.25592997  0.83737323    -0.12100
C1242       C  0.77744129  0.25731787  0.81086938     0.01800
H1243       H  0.77505861  0.17991678  0.79356608     0.14800
H1244       H  0.80152364  0.27752041  0.84947613     0.14800
C1245       C  0.76388579  0.28702727  0.80253846     0.36500
C1246       C  0.80743984  0.16924660  0.84482354     0.36400
N1247       N  0.75280742  0.31077666  0.79605522    -0.43900
N1248       N  0.81300036  0.14456097  0.85415819    -0.43900
C1249       C  0.75190139  0.28496987  0.69430940    -0.00300
C1250       C  0.73411300  0.28762179  0.66682351    -0.12200
C1251       C  0.73593789  0.31407857  0.64782873     0.02000
C1252       C  0.75595092  0.33901275  0.65602078    -0.00400
C1253       C  0.77549452  0.33560889  0.68199948    -0.12100
C1254       C  0.77383171  0.30903720  0.70104299     0.01800
H1255       H  0.71820654  0.26914986  0.66016652     0.14800
H1256       H  0.79139224  0.35432552  0.68814748     0.14800
C1257       C  0.79504446  0.30773981  0.72718736     0.36500
C1258       C  0.71726527  0.31468176  0.61973886     0.36400
N1259       N  0.81240453  0.30707193  0.74788691    -0.43900
N1260       N  0.70235523  0.31506206  0.59721462    -0.43900
C1261       C  0.65389019  0.22681946  0.14755900    -0.00300
C1262       C  0.68545013  0.21847900  0.14474802    -0.12200
C1263       C  0.70478341  0.21686429  0.17112593     0.02000
C1264       C  0.69236278  0.22350885  0.20103802    -0.00400
C1265       C  0.66038674  0.23069524  0.20378172    -0.12100
C1266       C  0.64113649  0.23221472  0.17740093     0.01800
H1267       H  0.69529998  0.21447384  0.12176739     0.14800
H1268       H  0.65044637  0.23535745  0.22659809     0.14800
C1269       C  0.60824315  0.23892076  0.18145759     0.36500
C1270       C  0.73764640  0.21052827  0.16646135     0.36400
N1271       N  0.58182839  0.24403517  0.18461203    -0.43900
N1272       N  0.76400672  0.20554566  0.16270509    -0.43900
C1273       C  0.78280843  0.18497218  0.26220101    -0.00300
C1274       C  0.80665960  0.19250499  0.28372639    -0.12200
C1275       C  0.83423208  0.17471578  0.28585153     0.02000
C1276       C  0.83841840  0.14862492  0.26628402    -0.00400
C1277       C  0.81408015  0.14016268  0.24598149    -0.12100
C1278       C  0.78659541  0.15774494  0.24376168     0.01800
H1279       H  0.80443949  0.21309506  0.29823235     0.14800
H1280       H  0.81681161  0.11983162  0.23113693     0.14800
C1281       C  0.76315117  0.14699684  0.22199769     0.36500
C1282       C  0.85862820  0.18502846  0.30670398     0.36400
N1283       N  0.74460314  0.13818670  0.20441344    -0.43900
N1284       N  0.87822914  0.19334537  0.32335776    -0.43900
C1285       C  0.72363092  0.27819495  0.29699012    -0.00300
C1286       C  0.70930624  0.30556229  0.28564737    -0.12200
C1287       C  0.70815203  0.33288182  0.30363329     0.02000
C1288       C  0.72090169  0.33304657  0.33389789    -0.00400
C1289       C  0.73426376  0.30557471  0.34568340    -0.12100
C1290       C  0.73577763  0.27835717  0.32771028     0.01800
H1291       H  0.70023360  0.30617410  0.26204918     0.14800
H1292       H  0.74415945  0.30555870  0.36898409     0.14800
C1293       C  0.75005490  0.25118961  0.34161754     0.36500
C1294       C  0.69631393  0.36105114  0.28951418     0.36400
N1295       N  0.76164257  0.22956043  0.35287742    -0.43900
N1296       N  0.68715477  0.38370961  0.27807996    -0.43900
C1297       C  0.29993719  0.26892605  0.20288730    -0.00300
C1298       C  0.32395842  0.24706062  0.19768909    -0.12200
C1299       C  0.34256331  0.24800979  0.17087821     0.02000
C1300       C  0.33694614  0.27070452  0.14760537    -0.00400
C1301       C  0.31510628  0.29431473  0.15385630    -0.12100
C1302       C  0.29702997  0.29397028  0.18133646     0.01800
H1303       H  0.32803958  0.22849953  0.21433190     0.14800
H1304       H  0.31136061  0.31255582  0.13676680     0.14800
C1305       C  0.27635422  0.32004275  0.18655516     0.36500
C1306       C  0.36756308  0.22542238  0.16813869     0.36400
N1307       N  0.26041404  0.34155574  0.19022494    -0.43900
N1308       N  0.38767181  0.20745066  0.16595529    -0.43900
C1309       C  0.26789106  0.14934372  0.32927996    -0.00300
C1310       C  0.25730456  0.17744876  0.34232382    -0.12200
C1311       C  0.25736595  0.20515252  0.32512272     0.02000
C1312       C  0.26757775  0.20510606  0.29374335    -0.00400
C1313       C  0.27982839  0.17728821  0.28119191    -0.12100
C1314       C  0.28003303  0.14952098  0.29866512     0.01800
H1315       H  0.24849275  0.17766542  0.36605797     0.14800
H1316       H  0.28781078  0.17682423  0.25718803     0.14800
C1317       C  0.29060326  0.12113297  0.28393165     0.36500
C1318       C  0.24711060  0.23336533  0.34047061     0.36400
N1319       N  0.29895862  0.09832041  0.27212778    -0.43900
N1320       N  0.23899566  0.25600745  0.35276097    -0.43900
C1321       C  0.14607809  0.33020324  0.26278355    -0.00300
C1322       C  0.14741092  0.30120451  0.27773307    -0.12200
C1323       C  0.17472026  0.28286742  0.27670925     0.02000
C1324       C  0.20184864  0.29387247  0.26093297    -0.00400
C1325       C  0.20071410  0.32367621  0.24749084    -0.12100
C1326       C  0.17334365  0.34163457  0.24804052     0.01800
H1327       H  0.12654054  0.29211507  0.28887959     0.14800
H1328       H  0.22129465  0.33306699  0.23624847     0.14800
C1329       C  0.17400427  0.37190004  0.23331588     0.36500
C1330       C  0.17328652  0.25226403  0.29060914     0.36400
N1331       N  0.17454762  0.39609497  0.22143093    -0.43900
N1332       N  0.17199924  0.22772050  0.30170678    -0.43900
C1333       C  0.73223491  0.69341987  0.19443579    -0.00300
C1334       C  0.76057117  0.67903511  0.18691691    -0.12200
C1335       C  0.76163843  0.65245844  0.16825399     0.02000
C1336       C  0.73344079  0.63902967  0.15675521    -0.00400
C1337       C  0.70487277  0.65353838  0.16453016    -0.12100
C1338       C  0.70409979  0.68062459  0.18296594     0.01800
H1339       H  0.78223022  0.68839161  0.19618218     0.14800
H1340       H  0.68306568  0.64420204  0.15562400     0.14800
C1341       C  0.67439041  0.69572417  0.18838885     0.36500
C1342       C  0.79246307  0.64013805  0.16188301     0.36400
N1343       N  0.65061352  0.70797981  0.19258380    -0.43900
N1344       N  0.81760572  0.63127295  0.15713271    -0.43900
C1345       C  0.78704417  0.78776091  0.23054088    -0.00300
C1346       C  0.78604004  0.81464845  0.24930908    -0.12200
C1347       C  0.81095382  0.83559868  0.25013318     0.02000
C1348       C  0.83770608  0.83017436  0.23158188    -0.00400
C1349       C  0.83835492  0.80434040  0.21164572    -0.12100
C1350       C  0.81360831  0.78295256  0.21113764     0.01800
H1351       H  0.76580862  0.81931687  0.26386875     0.14800
H1352       H  0.85891435  0.80010412  0.19738421     0.14800
C1353       C  0.81731831  0.75586791  0.19147213     0.36500
C1354       C  0.80817255  0.86265492  0.27007396     0.36400
N1355       N  0.82092801  0.73434850  0.17556731    -0.43900
N1356       N  0.80594731  0.88424406  0.28613687    -0.43900
C1357       C  0.69565135  0.74853053  0.28874376    -0.00300
C1358       C  0.69874598  0.77390896  0.30955983    -0.12200
C1359       C  0.68096720  0.77584251  0.33708452     0.02000
C1360       C  0.65948109  0.75200219  0.34437255    -0.00400
C1361       C  0.65579791  0.72724782  0.32316350    -0.12100
C1362       C  0.67343316  0.72512589  0.29591629     0.01800
H1363       H  0.71544714  0.79226134  0.30465094     0.33200
H1364       H  0.63898911  0.70892421  0.32791337     0.14800
C1365       C  0.66823571  0.69794997  0.27666501     0.36500
C1366       C  0.68608666  0.80195823  0.35769650     0.36400
N1367       N  0.66378415  0.67594732  0.26167125    -0.43900
N1368       N  0.69021623  0.82298176  0.37411855    -0.43900
C1369       C  0.25200381  0.78054292  0.18370859    -0.00300
C1370       C  0.26965426  0.80664853  0.19319874    -0.12200
C1371       C  0.27193076  0.83338476  0.17438269     0.02000
C1372       C  0.25619902  0.83446369  0.14550845    -0.00400
C1373       C  0.24025762  0.80779820  0.13517635    -0.12100
C1374       C  0.23838737  0.78093838  0.15357436     0.01800
H1375       H  0.28067684  0.80678369  0.21596423     0.14800
H1376       H  0.22865919  0.80815078  0.11266974     0.14800
C1377       C  0.22267042  0.75416944  0.14045097     0.36500
C1378       C  0.28870994  0.86007871  0.18617602     0.36400
N1379       N  0.21015484  0.73279844  0.12968997    -0.43900
N1380       N  0.30217404  0.88150067  0.19559180    -0.43900
C1381       C  0.18844560  0.69115443  0.22071566    -0.00300
C1382       C  0.18996964  0.66182552  0.23514053    -0.12200
C1383       C  0.16451999  0.64148405  0.23484826     0.02000
C1384       C  0.13646534  0.65004842  0.21963155    -0.00400
C1385       C  0.13512362  0.67865591  0.20391665    -0.12100
C1386       C  0.16061555  0.69937240  0.20455522     0.01800
H1387       H  0.21115710  0.65467791  0.24709288     0.14800
H1388       H  0.11356611  0.68552484  0.19246101     0.14800
C1389       C  0.15652126  0.72946666  0.19010504     0.36500
C1390       C  0.16800618  0.61182642  0.25043974     0.36400
N1391       N  0.15289762  0.75357633  0.17857105    -0.43900
N1392       N  0.17076280  0.58816074  0.26307001    -0.43900
C1393       C  0.32185585  0.71481077  0.33242332    -0.00300
C1394       C  0.33281375  0.73071670  0.30598302    -0.12200
C1395       C  0.31451036  0.73380324  0.27908723     0.02000
C1396       C  0.28389195  0.72121236  0.27822416    -0.00400
C1397       C  0.27358554  0.70378180  0.30423261    -0.12100
C1398       C  0.29225481  0.70043758  0.33108493     0.01800
H1399       H  0.35578326  0.74147367  0.30659843     0.14800
H1400       H  0.25041279  0.69351939  0.30412554     0.14800
C1401       C  0.27975036  0.68379375  0.35751679     0.36500
C1402       C  0.32819121  0.74988018  0.25285203     0.36400
N1403       N  0.26969025  0.67038776  0.37866050    -0.43900
N1404       N  0.33929783  0.76271332  0.23186943    -0.43900
C1405       C  0.79486963  0.76439757  0.69477513    -0.00300
C1406       C  0.78003631  0.77120740  0.66630123    -0.12200
C1407       C  0.79671883  0.77024674  0.63808554     0.02000
C1408       C  0.82891848  0.76320723  0.63827997    -0.00400
C1409       C  0.84402057  0.75784076  0.66677685    -0.12100
C1410       C  0.82738610  0.75831570  0.69487585     0.01800
H1411       H  0.75500981  0.77543950  0.66586861     0.14800
H1412       H  0.86881866  0.75234460  0.66695724     0.14800
C1413       C  0.84429244  0.75228934  0.72340416     0.36500
C1414       C  0.77988967  0.77405163  0.60917399     0.36400
N1415       N  0.85797126  0.74743143  0.74617649    -0.43900
N1416       N  0.76625381  0.77678943  0.58602797    -0.43900
C1417       C  0.76529915  0.70016581  0.78490376    -0.00300
C1418       C  0.75394789  0.69962726  0.81565877    -0.12200
C1419       C  0.75486059  0.67230412  0.83343929     0.02000
C1420       C  0.76753836  0.64470984  0.82064685    -0.00400
C1421       C  0.78015120  0.64534756  0.79054465    -0.12100
C1422       C  0.77887864  0.67255653  0.77247186     0.01800
H1423       H  0.74393126  0.72054916  0.82580341     0.14800
H1424       H  0.78955828  0.62407480  0.78052617     0.14800
C1425       C  0.78970687  0.67051816  0.74062448     0.36500
C1426       C  0.74277732  0.67319383  0.86490213     0.36400
N1427       N  0.79825805  0.66874724  0.71506836    -0.43900
N1428       N  0.73315151  0.67384509  0.89012453    -0.43900
C1429       C  0.70467366  0.79580420  0.76003765    -0.00300
C1430       C  0.70422335  0.82491165  0.74492900    -0.12200
C1431       C  0.67798011  0.84441573  0.74630373     0.02000
C1432       C  0.65127175  0.83529780  0.76332900    -0.00400
C1433       C  0.65219342  0.80737803  0.78022652    -0.12100
C1434       C  0.67840409  0.78753261  0.77866614     0.01800
H1435       H  0.72420062  0.83230316  0.73121627     0.14800
H1436       H  0.63164001  0.80013809  0.79317754     0.14800
C1437       C  0.67653054  0.75818104  0.79498397     0.36500
C1438       C  0.67887355  0.87364936  0.72963548     0.36400
N1439       N  0.67484109  0.73466702  0.80807542    -0.43900
N1440       N  0.67955423  0.89707715  0.71631146    -0.43900
loop_ 
_geom_bond_atom_site_label_1 
_geom_bond_atom_site_label_2 
_geom_bond_distance 
_geom_bond_site_symmetry_2 
_ccdc_geom_bond_type 
C1            N2   1.356       .  A
C1            N6   1.359       .  A
C1         C1405   1.483       .  S
N2            C3   1.356       .  A
C3            N4   1.362       .  A
C3         C1417   1.491       .  S
N4            C5   1.361       .  A
C5            N6   1.364       .  A
C5         C1429   1.500       .  S
C7            N8   1.361       .  A
C7           N12   1.358       .  A
C7         C1381   1.493       .  S
N8            C9   1.358       .  A
C9           N10   1.363       .  A
C9         C1396   1.500       .  S
N10          C11   1.362       .  A
C11          N12   1.360       .  A
C11        C1369   1.496       .  S
C13          N14   1.358       .  A
C13          N18   1.358       .  A
C13        C1357   1.495       .  S
N14          C15   1.360       .  A
C15          N16   1.356       .  A
C15        C1345   1.490       .  S
N16          C17   1.357       .  A
C17          N18   1.355       .  A
C17        C1333   1.477       .  S
C19          N20   1.356       .  A
C19          N24   1.365       .  A
C19        C1324   1.499       .  S
N20          C21   1.357       .  A
C21          N22   1.359       .  A
C21        C1312   1.491       .  S
N22          C23   1.365       .  A
C23          N24   1.364       .  A
C23        C1297   1.505       .  S
C25          N26   1.359       .  A
C25          N30   1.361       .  A
C25        C1285   1.492       .  S
N26          C27   1.358       .  A
C27          N28   1.358       .  A
C27        C1264   1.484       .  S
N28          C29   1.359       .  A
C29          N30   1.360       .  A
C29        C1273   1.499       .  S
C31          N32   1.357       .  A
C31          N36   1.364       .  A
C31        C1249   1.503       .  S
N32          C33   1.358       .  A
C33          N34   1.358       .  A
C33        C1237   1.486       .  S
N34          C35   1.363       .  A
C35          N36   1.362       .  A
C35        C1225   1.495       .  S
C37          N38   1.364       .  A
C37          N42   1.360       .  A
C37        C1189   1.500       .  S
N38          C39   1.361       .  A
C39          N40   1.358       .  A
C39        C1201   1.494       .  S
N40          C41   1.355       .  A
C41          N42   1.361       .  A
C41        C1213   1.489       .  S
O43         Mg45   2.137   1_455  S
O43         Mg51   2.156       .  S
O43          C78   1.238       .  S
C44          O57   1.237       .  S
C44          O81   1.270       .  A
C44          H83   1.080       .  S
Mg45         O74   2.138   1_656  S
Mg45         O89   2.274   1_655  S
Mg45         O85   2.240       .  S
Mg45         O56   2.289       .  S
O46         Mg88   2.164       .  S
O46         Mg71   2.135   1_554  S
O46          C67   1.239   1_455  S
O47          C78   1.271   1_565  A
O47         Mg71   2.291       .  S
C48        C1180   1.496       .  S
C48          O50   1.277       .  A
C48          O62   1.272       .  A
O49          C77   1.271       .  A
O49         Mg51   2.303   1_554  S
O50         Mg82   2.302       .  S
Mg51         O57   2.124   1_556  S
Mg51         O65   2.285       .  S
Mg51         O53   2.368   1_545  S
C52        C1168   1.483       .  S
C52          O90   1.269       .  A
C52          O58   1.279       .  A
O53          C60   1.283       .  A
H54          C67   1.082       .  S
C55          O69   1.237       .  S
C55          O70   1.271       .  A
C55          H80   1.080       .  S
O56          C79   1.272   1_556  A
O57         Mg71   2.141   1_544  S
O58         Mg88   2.337   1_655  S
C59        C1129   1.489       .  S
C59          O72   1.275       .  A
C59          O64   1.271       .  A
C60        C1117   1.493       .  S
C60          O87   1.270       .  A
Mg61         O68   2.122       .  S
Mg61         O69   2.140   1_655  S
Mg61         O62   2.272       .  S
Mg61         O63   2.294   1_545  S
Mg61         O90   2.227   1_545  S
O63          C67   1.272       .  A
O64         Mg71   2.263   1_554  S
O65          C84   1.277       .  A
O66          C86   1.282   1_554  A
O66         Mg82   2.355       .  S
O68         Mg82   2.156       .  S
O68          C79   1.239       .  S
O69         Mg88   2.131   1_545  S
O70         Mg82   2.302   1_455  S
Mg71         O87   2.239       .  S
O72         Mg88   2.289       .  S
H73          C78   1.082       .  S
O74         Mg82   2.133   1_455  S
O74          C77   1.237       .  S
H75          C77   1.080       .  S
H76          C79   1.082       .  S
O81         Mg88   2.297   1_545  S
C84        C1153   1.490       .  S
C84          O89   1.273       .  A
O85          C86   1.271       .  A
C86        C1141   1.491       .  S
C91          N92   1.361       .  A
C91          N96   1.365       .  A
C91        C1108   1.486       .  S
N92          C93   1.358       .  A
C93          N94   1.352       .  A
C93        C1156   1.485       .  S
N94          C95   1.354       .  A
C95          N96   1.363       .  A
C95        C1093   1.484       .  S
C97          N98   1.365       .  A
C97         N102   1.367       .  A
C97        C1084   1.500       .  S
N98          C99   1.360       .  A
C99         N100   1.351       .  A
C99        C1177   1.485       .  S
N100        C101   1.354       .  A
C101        N102   1.364       .  A
C101       C1276   1.486       .  S
C103        N104   1.367       .  A
C103        N108   1.361       .  A
C103       C1069   1.495       .  S
N104        C105   1.365       .  A
C105        N106   1.355       .  A
C105       C1372   1.485       .  S
N106        C107   1.353       .  A
C107        N108   1.359       .  A
C107       C1132   1.484       .  S
O109       Mg111   2.118       .  S
O109       Mg117   2.130       .  S
O109        C144   1.237       .  S
C110        O123   1.240   1_455  S
C110        O147   1.276       .  A
C110        H149   1.079       .  S
Mg111       O140   2.135       .  S
Mg111       O155   2.297       .  S
Mg111       O151   2.204       .  S
Mg111       O122   2.298       .  S
O112       Mg154   2.132   1_655  S
O112       Mg137   2.118       .  S
O112        C133   1.237       .  S
O113        C144   1.270       .  A
O113       Mg137   2.295       .  S
C114       C1024   1.488   1_655  S
C114        O116   1.278       .  A
C114        O128   1.273   1_655  A
O115        C143   1.276       .  A
O115       Mg117   2.322       .  S
O116       Mg148   2.330       .  S
Mg117       O123   2.166       .  S
Mg117       O131   2.320       .  S
Mg117       O119   2.368       .  S
C118       C1036   1.493       .  S
C118        O156   1.267       .  A
C118        O124   1.281       .  A
O119        C126   1.282       .  A
H120        C133   1.079       .  S
C121        O135   1.241       .  S
C121        O136   1.277       .  A
C121        H146   1.077       .  S
O122        C145   1.271       .  A
O123       Mg137   2.140       .  S
O124       Mg154   2.361       .  S
C125        C997   1.490       .  S
C125        O138   1.278       .  A
C125        O130   1.272       .  A
C126       C1012   1.487       .  S
C126        O153   1.266       .  A
Mg127       O134   2.117       .  S
Mg127       O135   2.137   1_655  S
Mg127       O128   2.300   1_655  S
Mg127       O129   2.298       .  S
Mg127       O156   2.207   1_655  S
O129        C133   1.271       .  A
O130       Mg137   2.290   1_455  S
O131        C150   1.277       .  A
O132        C152   1.282       .  A
O132       Mg148   2.367       .  S
O134       Mg148   2.132       .  S
O134        C145   1.237       .  S
O135       Mg154   2.171       .  S
O136       Mg148   2.321   1_455  S
Mg137       O153   2.202       .  S
O138       Mg154   2.332       .  S
H139        C144   1.081       .  S
O140       Mg148   2.172       .  S
O140        C143   1.240       .  S
H141        C143   1.077       .  S
H142        C145   1.081       .  S
O147       Mg154   2.319       .  S
C150       C1045   1.486       .  S
C150        O155   1.272       .  A
O151        C152   1.267       .  A
C152       C1057   1.494       .  S
C157        N158   1.365       .  A
C157        N162   1.362       .  A
C157        C985   1.493       .  S
N158        C159   1.365       .  A
C159        N160   1.355       .  A
C159       C1288   1.479       .  S
N160        C161   1.351       .  A
C161        N162   1.361       .  A
C161       C1060   1.480       .  S
C163        N164   1.360       .  A
C163        N168   1.367       .  A
C163        C976   1.496       .  S
N164        C165   1.357       .  A
C165        N166   1.349       .  A
C165       C1033   1.479       .  S
N166        C167   1.355       .  A
C167        N168   1.366       .  A
C167       C1384   1.481       .  S
C169        N170   1.363       .  A
C169        N174   1.365       .  A
C169        C961   1.504       .  S
N170        C171   1.361       .  A
C171        N172   1.353       .  A
C171       C1009   1.479       .  S
N172        C173   1.356       .  A
C173        N174   1.363       .  A
C173       C1408   1.474       .  S
O175       Mg177   2.104   1_655  S
O175       Mg183   2.142       .  S
O175        C210   1.236   1_655  S
C176        O189   1.240   1_545  S
C176        O213   1.276       .  A
C176        H215   1.077       .  S
Mg177       O206   2.127       .  S
Mg177       O221   2.304   1_455  S
Mg177       O217   2.206       .  S
Mg177       O188   2.313       .  S
O178       Mg220   2.127   1_565  S
O178       Mg203   2.117   1_455  S
O178        C199   1.236       .  S
O179        C210   1.269       .  A
O179       Mg203   2.284   1_455  S
C180        C937   1.483   1_565  S
C180        O182   1.274       .  A
C180        O194   1.271   1_565  A
O181        C209   1.273       .  A
O181       Mg183   2.306       .  S
O182       Mg214   2.303       .  S
Mg183       O189   2.167       .  S
Mg183       O197   2.315       .  S
Mg183       O185   2.332       .  S
C184        C949   1.500       .  S
C184        O222   1.268       .  A
C184        O190   1.283       .  A
O185        C192   1.278       .  A
H186        C199   1.081       .  S
C187        O201   1.243       .  S
C187        O202   1.280       .  A
C187        H212   1.077       .  S
O188        C211   1.273       .  A
O189       Mg203   2.145       .  S
O190       Mg220   2.381       .  S
C191       C1081   1.484       .  S
C191        O204   1.279   1_655  A
C191        O196   1.270       .  A
C192        C913   1.478       .  S
C192        O219   1.266       .  A
Mg193       O200   2.128       .  S
Mg193       O201   2.129   1_565  S
Mg193       O194   2.289   1_565  S
Mg193       O195   2.300       .  S
Mg193       O222   2.218   1_565  S
O195        C199   1.270       .  A
O196       Mg203   2.282   1_545  S
O197        C216   1.277       .  A
O198        C218   1.280       .  A
O198       Mg214   2.366       .  S
O200       Mg214   2.123       .  S
O200        C211   1.238       .  S
O201       Mg220   2.176       .  S
O202       Mg214   2.335   1_545  S
Mg203       O219   2.199       .  S
O204       Mg220   2.329       .  S
H205        C210   1.082       .  S
O206       Mg214   2.154       .  S
O206        C209   1.238   1_455  S
H207        C209   1.080       .  S
H208        C211   1.080       .  S
O213       Mg220   2.318   1_655  S
C216        C964   1.485       .  S
C216        O221   1.274       .  A
O217        C218   1.265       .  A
C218        C925   1.478       .  S
C223        N224   1.368       .  A
C223        N228   1.362       .  A
C223       C1000   1.498       .  S
N224        C225   1.365       .  A
C225        N226   1.354       .  A
C225       C1192   1.483       .  S
N226        C227   1.350       .  A
C227        N228   1.362       .  A
C227        C928   1.496       .  S
C229        N230   1.366       .  A
C229        N234   1.359       .  A
C229        C901   1.494       .  S
N230        C231   1.367       .  A
C231        N232   1.361       .  A
C231       C1309   1.484       .  S
N232        C233   1.355       .  A
C233        N234   1.358       .  A
C233        C952   1.486       .  S
C235        N236   1.361       .  A
C235        N240   1.359       .  A
C235       C1165   1.484       .  S
N236        C237   1.360       .  A
C237        N238   1.354       .  A
C237       C1348   1.474       .  S
N238        C239   1.350       .  A
C239        N240   1.357       .  A
C239        C916   1.469       .  S
O241       Mg243   2.102       .  S
O241       Mg249   2.137       .  S
O241        C276   1.235       .  S
C242        O255   1.241       .  S
C242        O279   1.276       .  A
C242        H281   1.077       .  S
Mg243       O272   2.139   1_556  S
Mg243       O287   2.275   1_556  S
Mg243       O283   2.195   1_556  S
Mg243       O254   2.292       .  S
O244       Mg286   2.136       .  S
O244       Mg269   2.113       .  S
O244        C265   1.237       .  S
O245        C276   1.267       .  A
O245       Mg269   2.281       .  S
C246        C829   1.485       .  S
C246        O248   1.276       .  A
C246        O260   1.274       .  A
O247        C275   1.274   1_556  A
O247       Mg249   2.313       .  S
O248       Mg280   2.303       .  S
Mg249       O255   2.173       .  S
Mg249       O263   2.343       .  S
Mg249       O251   2.363       .  S
C250        C841   1.493       .  S
C250        O288   1.269       .  A
C250        O256   1.281       .  A
O251        C258   1.283       .  A
H252        C265   1.081       .  S
C253        O267   1.239       .  S
C253        O268   1.275   1_556  A
C253        H278   1.079       .  S
O254        C277   1.270       .  A
O255       Mg269   2.153       .  S
O256       Mg286   2.360       .  S
C257        C880   1.482       .  S
C257        O270   1.277       .  A
C257        O262   1.269       .  A
C258        C889   1.482       .  S
C258        O285   1.265       .  A
Mg259       O266   2.121       .  S
Mg259       O267   2.134       .  S
Mg259       O260   2.296   1_556  S
Mg259       O261   2.298       .  S
Mg259       O288   2.220       .  S
O261        C265   1.270       .  A
O262       Mg269   2.267       .  S
O263        C282   1.281       .  A
O264        C284   1.281       .  A
O264       Mg280   2.358       .  S
O266       Mg280   2.139   1_556  S
O266        C277   1.237       .  S
O267       Mg286   2.160       .  S
O268       Mg280   2.318       .  S
Mg269       O285   2.186       .  S
O270       Mg286   2.324       .  S
H271        C276   1.081       .  S
O272       Mg280   2.158       .  S
O272        C275   1.239       .  S
H273        C275   1.080       .  S
H274        C277   1.080       .  S
O279       Mg286   2.316       .  S
C282        C856   1.493   1_556  S
C282        O287   1.271   1_556  A
O283        C284   1.265       .  A
C284        C865   1.487       .  S
C289        N290   1.364       .  A
C289        N294   1.362       .  A
C289        C817   1.487       .  S
N290        C291   1.363       .  A
C291        N292   1.354       .  A
C291        C808   1.482       .  S
N292        C293   1.348       .  A
C293        N294   1.360       .  A
C293        C892   1.474       .  S
C295        N296   1.362       .  A
C295        N300   1.359       .  A
C295        C793   1.490       .  S
N296        C297   1.360       .  A
C297        N298   1.357       .  A
C297       C1261   1.473       .  S
N298        C299   1.355       .  A
C299        N300   1.360       .  A
C299        C868   1.478       .  S
C301        N302   1.364       .  A
C301        N306   1.361       .  A
C301        C781   1.489       .  S
N302        C303   1.363       .  A
C303        N304   1.356       .  A
C303       C1420   1.477       .  S
N304        C305   1.352       .  A
C305        N306   1.361       .  A
C305        C844   1.477       .  S
O307       Mg309   2.105       .  S
O307       Mg315   2.129       .  S
O307        C342   1.236       .  S
C308        O321   1.240       .  S
C308        O345   1.276       .  A
C308        H347   1.079       .  S
Mg309       O338   2.134   1_655  S
Mg309       O353   2.290   1_655  S
Mg309       O349   2.194   1_655  S
Mg309       O320   2.295       .  S
O310       Mg352   2.126       .  S
O310       Mg335   2.107       .  S
O310        C331   1.237       .  S
O311        C342   1.269       .  A
O311       Mg335   2.294   1_554  S
C312       C1105   1.482       .  S
C312        O314   1.278   1_556  A
C312        O326   1.271       .  A
O313        C341   1.276       .  A
O313       Mg315   2.316   1_455  S
O314       Mg346   2.317       .  S
Mg315       O321   2.157   1_554  S
Mg315       O329   2.305       .  S
Mg315       O317   2.334       .  S
C316        C745   1.487       .  S
C316        O354   1.268       .  A
C316        O322   1.279       .  A
O317        C324   1.277       .  A
H318        C331   1.080       .  S
C319        O333   1.241   1_455  S
C319        O334   1.278       .  A
C319        H344   1.080       .  S
O320        C343   1.269       .  A
O321       Mg335   2.136       .  S
O322       Mg352   2.342       .  S
C323        C784   1.490       .  S
C323        O336   1.278       .  A
C323        O328   1.270       .  A
C324        C760   1.488       .  S
C324        O351   1.266       .  A
Mg325       O332   2.127   1_556  S
Mg325       O333   2.135       .  S
Mg325       O326   2.276   1_655  S
Mg325       O327   2.298       .  S
Mg325       O354   2.232       .  S
O327        C331   1.271       .  A
O328       Mg335   2.276       .  S
O329        C348   1.274       .  A
O330        C350   1.285       .  A
O330       Mg346   2.399       .  S
O332       Mg346   2.134   1_655  S
O332        C343   1.236       .  S
O333       Mg352   2.173       .  S
O334       Mg346   2.329   1_556  S
Mg335       O351   2.209   1_556  S
O336       Mg352   2.333       .  S
H337        C342   1.080       .  S
O338       Mg346   2.160       .  S
O338        C341   1.241       .  S
H339        C341   1.077       .  S
H340        C343   1.080       .  S
O345       Mg352   2.317       .  S
C348        C973   1.479   1_655  S
C348        O353   1.271   1_655  A
O349        C350   1.266       .  A
C350        C769   1.503       .  S
C355        N356   1.365       .  A
C355        N360   1.357       .  A
C355        C832   1.481       .  S
N356        C357   1.367       .  A
C357        N358   1.354       .  A
C357       C1336   1.494       .  S
N358        C359   1.350       .  A
C359        N360   1.355       .  A
C359        C757   1.476       .  S
C361        N362   1.359       .  A
C361        N366   1.369       .  A
C361       C1021   1.507       .  S
N362        C363   1.358       .  A
C363        N364   1.352       .  A
C363        C772   1.490       .  S
N364        C365   1.359       .  A
C365        N366   1.369       .  A
C365       C1321   1.486       .  S
C367        N368   1.358       .  A
C367        N372   1.368       .  A
C367       C1144   1.485       .  S
N368        C369   1.354       .  A
C369        N370   1.351       .  A
C369        C748   1.477       .  S
N370        C371   1.360       .  A
C371        N372   1.367       .  A
C371       C1240   1.499       .  S
O373       Mg375   2.129       .  S
O373       Mg381   2.157       .  S
O373        C408   1.239       .  S
C374        O387   1.239       .  S
C374        O411   1.272       .  A
C374        H413   1.080       .  S
Mg375       O404   2.137   1_565  S
Mg375       O419   2.284       .  S
Mg375       O415   2.224   1_556  S
Mg375       O386   2.294   1_556  S
O376       Mg418   2.161       .  S
O376       Mg401   2.129       .  S
O376        C397   1.239       .  S
O377        C408   1.272       .  A
O377       Mg401   2.291   1_565  S
C378        C733   1.499       .  S
C378        O380   1.282       .  A
C378        O392   1.270       .  A
O379        C407   1.272       .  A
O379       Mg381   2.309   1_545  S
O380       Mg412   2.323       .  S
Mg381       O387   2.129   1_565  S
Mg381       O395   2.300       .  S
Mg381       O383   2.371       .  S
C382        C796   1.493       .  S
C382        O420   1.272       .  A
C382        O388   1.282   1_554  A
O383        C390   1.283       .  A
H384        C397   1.082       .  S
C385        O399   1.238       .  S
C385        O400   1.271       .  A
C385        H410   1.080       .  S
O386        C409   1.272   1_565  A
O387       Mg401   2.142       .  S
O388       Mg418   2.360       .  S
C389        C724   1.485       .  S
C389        O402   1.276       .  A
C389        O394   1.268       .  A
C390        C709   1.496       .  S
C390        O417   1.269       .  A
Mg391       O398   2.137       .  S
Mg391       O399   2.134   1_554  S
Mg391       O392   2.266       .  S
Mg391       O393   2.288       .  S
Mg391       O420   2.244       .  S
O393        C397   1.271   1_554  A
O394       Mg401   2.250       .  S
O395        C414   1.278       .  A
O396        C416   1.286   1_545  A
O396       Mg412   2.388       .  S
O398       Mg412   2.162       .  S
O398        C409   1.239       .  S
O399       Mg418   2.121       .  S
O400       Mg412   2.300   1_556  S
Mg401       O417   2.233   1_545  S
O402       Mg418   2.292       .  S
H403        C408   1.082       .  S
O404       Mg412   2.148   1_556  S
O404        C407   1.237       .  S
H405        C407   1.080       .  S
H406        C409   1.082       .  S
O411       Mg418   2.302       .  S
C414        C697   1.492       .  S
C414        O419   1.273       .  A
O415        C416   1.269       .  A
C416       C1072   1.494       .  S
C421        N422   1.367       .  A
C421        N426   1.362       .  A
C421        C685   1.491       .  S
N422        C423   1.364       .  A
C423        N424   1.353       .  A
C423       C1228   1.479       .  S
N424        C425   1.351       .  A
C425        N426   1.362       .  A
C425        C721   1.489       .  S
C427        N428   1.369       .  A
C427        N432   1.365       .  A
C427        C853   1.495       .  S
N428        C429   1.366       .  A
C429        N430   1.353       .  A
C429       C1300   1.491       .  S
N430        C431   1.349       .  A
C431        N432   1.362       .  A
C431        C736   1.487       .  S
C433        N434   1.360       .  A
C433        N438   1.366       .  A
C433       C1120   1.496       .  S
N434        C435   1.359       .  A
C435        N436   1.355       .  A
C435        C700   1.496       .  S
N436        C437   1.358       .  A
C437        N438   1.364       .  A
C437       C1204   1.482       .  S
O439       Mg441   2.116       .  S
O439       Mg447   2.131       .  S
O439        C474   1.239       .  S
C440        O453   1.238       .  S
C440        O477   1.274       .  A
C440        H479   1.080       .  S
Mg441       O470   2.121       .  S
Mg441       O485   2.282       .  S
Mg441       O481   2.210       .  S
Mg441       O452   2.303       .  S
O442       Mg484   2.136       .  S
O442       Mg467   2.110       .  S
O442        C463   1.236       .  S
O443        C474   1.272       .  A
O443       Mg467   2.304       .  S
C444        C820   1.484       .  S
C444        O446   1.274       .  A
C444        O458   1.268       .  A
O445        C473   1.276       .  A
O445       Mg447   2.319       .  S
O446       Mg478   2.315       .  S
Mg447       O453   2.168       .  S
Mg447       O461   2.330       .  S
Mg447       O449   2.333       .  S
C448        C637   1.481       .  S
C448        O486   1.261       .  A
C448        O454   1.282       .  A
O449        C456   1.278       .  A
H450        C463   1.080       .  S
C451        O465   1.242       .  S
C451        O466   1.278       .  A
C451        H476   1.077       .  S
O452        C475   1.270       .  A
O453       Mg467   2.133       .  S
O454       Mg484   2.367       .  S
C455        C649   1.491       .  S
C455        O468   1.280       .  A
C455        O460   1.274       .  A
C456        C661   1.482       .  S
C456        O483   1.267       .  A
Mg457       O464   2.099       .  S
Mg457       O465   2.142       .  S
Mg457       O458   2.267       .  S
Mg457       O459   2.286       .  S
Mg457       O486   2.167       .  S
O459        C463   1.268       .  A
O460       Mg467   2.304       .  S
O461        C480   1.277       .  A
O462        C482   1.279       .  A
O462       Mg478   2.361       .  S
O464       Mg478   2.118       .  S
O464        C475   1.236       .  S
O465       Mg484   2.175       .  S
O466       Mg478   2.327       .  S
Mg467       O483   2.207       .  S
O468       Mg484   2.334       .  S
H469        C474   1.079       .  S
O470       Mg478   2.160       .  S
O470        C473   1.241       .  S
H471        C473   1.078       .  S
H472        C475   1.081       .  S
O477       Mg484   2.314       .  S
C480        C988   1.487       .  S
C480        O485   1.270       .  A
O481        C482   1.265       .  A
C482        C673   1.491       .  S
C487        N488   1.358       .  A
C487        N492   1.367       .  A
C487        C625   1.482       .  S
N488        C489   1.354       .  A
C489        N490   1.346       .  A
C489        C664   1.469       .  S
N490        C491   1.355       .  A
C491        N492   1.366       .  A
C491       C1360   1.489       .  S
C493        N494   1.369       .  A
C493        N498   1.364       .  A
C493        C877   1.509       .  S
N494        C495   1.365       .  A
C495        N496   1.351       .  A
C495       C1216   1.477       .  S
N496        C497   1.345       .  A
C497        N498   1.358       .  A
C497        C640   1.471       .  S
C499        N500   1.366       .  A
C499        N504   1.359       .  A
C499       C1048   1.500       .  S
N500        C501   1.367       .  A
C501        N502   1.357       .  A
C501       C1252   1.487       .  S
N502        C503   1.353       .  A
C503        N504   1.357       .  A
C503        C676   1.487       .  S
O505       Mg507   2.110       .  S
O505       Mg513   2.131   1_565  S
O505        C540   1.238       .  S
C506        O519   1.240       .  S
C506        O543   1.276   1_545  A
C506        H545   1.079       .  S
Mg507       O536   2.141       .  S
Mg507       O551   2.305   1_565  S
Mg507       O547   2.218       .  S
Mg507       O518   2.298       .  S
O508       Mg550   2.129       .  S
O508       Mg533   2.126       .  S
O508        C529   1.238       .  S
O509        C540   1.271       .  A
O509       Mg533   2.296       .  S
C510        C628   1.487       .  S
C510        O512   1.274       .  A
C510        O524   1.274       .  A
O511        C539   1.274   1_545  A
O511       Mg513   2.307       .  S
O512       Mg544   2.295       .  S
Mg513       O519   2.167       .  S
Mg513       O527   2.314       .  S
Mg513       O515   2.325       .  S
C514        C613   1.486       .  S
C514        O552   1.268       .  A
C514        O520   1.283       .  A
O515        C522   1.277       .  A
H516        C529   1.079       .  S
C517        O531   1.240       .  S
C517        O532   1.276       .  A
C517        H542   1.079       .  S
O518        C541   1.271       .  A
O519       Mg533   2.138   1_545  S
O520       Mg550   2.374       .  S
C521        C904   1.489   1_565  S
C521        O534   1.278       .  A
C521        O526   1.273   1_565  A
C522        C601   1.484       .  S
C522        O549   1.269       .  A
Mg523       O530   2.124       .  S
Mg523       O531   2.132       .  S
Mg523       O524   2.303       .  S
Mg523       O525   2.304       .  S
Mg523       O552   2.216       .  S
O525        C529   1.272       .  A
O526       Mg533   2.299   1_545  S
O527        C546   1.276       .  A
O528        C548   1.278       .  A
O528       Mg544   2.341       .  S
O530       Mg544   2.134       .  S
O530        C541   1.238       .  S
O531       Mg550   2.164       .  S
O532       Mg544   2.319       .  S
Mg533       O549   2.227   1_565  S
O534       Mg550   2.327       .  S
H535        C540   1.081       .  S
O536       Mg544   2.147       .  S
O536        C539   1.240       .  S
H537        C539   1.078       .  S
H538        C541   1.081       .  S
O543       Mg550   2.321       .  S
C546        C688   1.490       .  S
C546        O551   1.274       .  A
O547        C548   1.267       .  A
C548        C589   1.467       .  S
C553        N554   1.371       .  A
C553        N558   1.363       .  A
C553        C652   1.502       .  S
N554        C555   1.370       .  A
C555        N556   1.356       .  A
C555       C1393   1.487       .  S
N556        C557   1.349       .  A
C557        N558   1.358       .  A
C557        C616   1.475       .  S
C559        N560   1.364       .  A
C559        N564   1.357       .  A
C559        C940   1.487       .  S
N560        C561   1.364       .  A
C561        N562   1.357       .  A
C561        C580   1.480       .  S
N562        C563   1.351       .  A
C563        N564   1.355       .  A
C563        C604   1.468       .  S
C565        N566   1.361       .  A
C565        N570   1.368       .  A
C565        C712   1.497       .  S
N566        C567   1.357       .  A
C567        N568   1.351       .  A
C567        C592   1.472       .  S
N568        C569   1.355       .  A
C569        N570   1.365       .  A
C569       C1432   1.482       .  S
C571        N572   1.361       .  A
C571        N576   1.358       .  A
C571        C577   1.494       .  S
N572        C573   1.361       .  A
C573        N574   1.358       .  A
C573        C805   1.495       .  S
N574        C575   1.353       .  A
C575        N576   1.356       .  A
C575       C1096   1.472       .  S
C577        C578   1.412       .  A
C577        C582   1.417       .  A
C578        H583   1.084       .  S
C578        C579   1.402       .  A
C579        C580   1.408       .  A
C579        C586   1.444       .  S
C580        C581   1.404       .  A
C581        H584   1.085       .  S
C581        C582   1.399       .  A
C582        C585   1.444       .  S
C585        N587   1.157       .  T
C586        N588   1.157       .  T
C589        C590   1.404       .  A
C589        C594   1.407       .  A
C590        H595   1.085       .  S
C590        C591   1.400       .  A
C591        C592   1.409       .  A
C591        C598   1.444       .  S
C592        C593   1.404       .  A
C593        H596   1.085       .  S
C593        C594   1.401       .  A
C594        C597   1.444       .  S
C597        N599   1.157       .  T
C598        N600   1.157       .  T
C601        C602   1.407       .  A
C601        C606   1.417       .  A
C602        H607   1.085       .  S
C602        C603   1.394       .  A
C603        C604   1.406       .  A
C603        C610   1.445       .  S
C604        C605   1.401       .  A
C605        H608   1.085       .  S
C605        C606   1.404       .  A
C606        C609   1.444       .  S
C609        N611   1.158       .  T
C610        N612   1.157       .  T
C613        C614   1.409       .  A
C613        C618   1.414       .  A
C614        H619   1.085       .  S
C614        C615   1.398       .  A
C615        C616   1.406       .  A
C615        C622   1.445       .  S
C616        C617   1.405       .  A
C617        H620   1.085       .  S
C617        C618   1.407       .  A
C618        C621   1.443       .  S
C621        N623   1.157       .  T
C622        N624   1.157       .  T
C625        C626   1.406       .  A
C625        C630   1.410       .  A
C626        H631   1.085       .  S
C626        C627   1.404       .  A
C627        C628   1.412       .  A
C627        C634   1.444       .  S
C628        C629   1.407       .  A
C629        H632   1.085       .  S
C629        C630   1.404       .  A
C630        C633   1.444       .  S
C633        N635   1.157       .  T
C634        N636   1.157       .  T
C637        C638   1.403       .  A
C637        C642   1.422       .  A
C638        H643   1.085       .  S
C638        C639   1.403       .  A
C639        C640   1.414       .  A
C639        C646   1.443       .  S
C640        C641   1.395       .  A
C641        H644   1.086       .  S
C641        C642   1.394       .  A
C642        C645   1.447       .  S
C645        N647   1.157       .  T
C646        N648   1.157       .  T
C649        C650   1.402       .  A
C649        C654   1.414       .  A
C650        H655   1.085       .  S
C650        C651   1.408       .  A
C651        C652   1.421       .  A
C651        C658   1.444       .  S
C652        C653   1.407       .  A
C653        H656   1.084       .  S
C653        C654   1.410       .  A
C654        C657   1.444       .  S
C657        N659   1.157       .  T
C658        N660   1.157       .  T
C661        C662   1.408       .  A
C661        C666   1.415       .  A
C662        H667   1.085       .  S
C662        C663   1.393       .  A
C663        C664   1.407       .  A
C663        C670   1.446       .  S
C664        C665   1.403       .  A
C665        H668   1.085       .  S
C665        C666   1.403       .  A
C666        C669   1.444       .  S
C669        N671   1.157       .  T
C670        N672   1.157       .  T
C673        C674   1.409       .  A
C673        C678   1.413       .  A
C674        H679   1.085       .  S
C674        C675   1.392       .  A
C675        C676   1.412       .  A
C675        C682   1.446       .  S
C676        C677   1.411       .  A
C677        H680   1.085       .  S
C677        C678   1.408       .  A
C678        C681   1.444       .  S
C681        N683   1.158       .  T
C682        N684   1.158       .  T
C685        C686   1.403       .  A
C685        C690   1.416       .  A
C686        H691   1.085       .  S
C686        C687   1.404       .  A
C687        C688   1.415       .  A
C687        C694   1.444       .  S
C688        C689   1.405       .  A
C689        H692   1.085       .  S
C689        C690   1.408       .  A
C690        C693   1.444       .  S
C693        N695   1.157       .  T
C694        N696   1.157       .  T
C697        C698   1.404       .  A
C697        C702   1.419       .  A
C698        H703   1.085       .  S
C698        C699   1.407       .  A
C699        C700   1.421       .  A
C699        C706   1.444       .  S
C700        C701   1.404       .  A
C701        H704   1.085       .  S
C701        C702   1.398       .  A
C702        C705   1.446       .  S
C705        N707   1.158       .  T
C706        N708   1.158       .  T
C709        C710   1.409       .  A
C709        C714   1.412       .  A
C710        H715   1.085       .  S
C710        C711   1.403       .  A
C711        C712   1.414       .  A
C711        C718   1.444       .  S
C712        C713   1.411       .  A
C713        H716   1.085       .  S
C713        C714   1.408       .  A
C714        C717   1.443       .  S
C717        N719   1.157       .  T
C718        N720   1.157       .  T
C721        C722   1.401       .  A
C721        C726   1.421       .  A
C722        H727   1.085       .  S
C722        C723   1.396       .  A
C723        C724   1.421       .  A
C723        C730   1.447       .  S
C724        C725   1.401       .  A
C725        H728   1.085       .  S
C725        C726   1.403       .  A
C726        C729   1.444       .  S
C729        N731   1.157       .  T
C730        N732   1.158       .  T
C733        C734   1.406       .  A
C733        C738   1.427       .  A
C734        H739   1.084       .  S
C734        C735   1.406       .  A
C735        C736   1.417       .  A
C735        C742   1.444       .  S
C736        C737   1.397       .  A
C737        H740   1.085       .  S
C737        C738   1.400       .  A
C738        C741   1.445       .  S
C741        N743   1.157       .  T
C742        N744   1.157       .  T
C745        C746   1.408       .  A
C745        C750   1.416       .  A
C746        H751   1.085       .  S
C746        C747   1.398       .  A
C747        C748   1.409       .  A
C747        C754   1.445       .  S
C748        C749   1.403       .  A
C749        H752   1.085       .  S
C749        C750   1.404       .  A
C750        C753   1.443       .  S
C753        N755   1.157       .  T
C754        N756   1.157       .  T
C757        C758   1.404       .  A
C757        C762   1.408       .  A
C758        H763   1.082       .  S
C758        C759   1.401       .  A
C759        C760   1.415       .  A
C759        C766   1.444       .  S
C760        C761   1.412       .  A
C761        H764   1.084       .  S
C761        C762   1.395       .  A
C762        C765   1.446       .  S
C765        N767   1.157       .  T
C766        N768   1.158       .  T
C769        C770   1.414       .  A
C769        C774   1.415       .  A
C770        H775   1.084       .  S
C770        C771   1.393       .  A
C771        C772   1.409       .  A
C771        C778   1.446       .  S
C772        C773   1.411       .  A
C773        H776   1.084       .  S
C773        C774   1.412       .  A
C774        C777   1.442       .  S
C777        N779   1.157       .  T
C778        N780   1.157       .  T
C781        C782   1.407       .  A
C781        C786   1.412       .  A
C782        H787   1.085       .  S
C782        C783   1.409       .  A
C783        C784   1.412       .  A
C783        C790   1.442       .  S
C784        C785   1.407       .  A
C785        H788   1.085       .  S
C785        C786   1.403       .  A
C786        C789   1.444       .  S
C789        N791   1.157       .  T
C790        N792   1.157       .  T
C793        C794   1.409       .  A
C793        C798   1.413       .  A
C794        H799   1.085       .  S
C794        C795   1.409       .  A
C795        C796   1.414       .  A
C795        C802   1.443   1_554  S
C796        C797   1.407       .  A
C797        H800   1.085       .  S
C797        C798   1.400       .  A
C798        C801   1.445       .  S
C801        N803   1.157       .  T
C802        N804   1.157       .  T
C805        C806   1.412       .  A
C805        C810   1.419       .  A
C806        H811   1.082       .  S
C806        C807   1.404       .  A
C807        C808   1.409       .  A
C807        C814   1.444       .  S
C808        C809   1.403       .  A
C809        H812   1.085       .  S
C809        C810   1.394       .  A
C810        C813   1.445       .  S
C813        N815   1.157       .  T
C814        N816   1.157       .  T
C817        C818   1.402       .  A
C817        C822   1.415       .  A
C818        H823   1.085       .  S
C818        C819   1.402       .  A
C819        C820   1.415       .  A
C819        C826   1.445       .  S
C820        C821   1.403       .  A
C821        H824   1.085       .  S
C821        C822   1.407       .  A
C822        C825   1.443       .  S
C825        N827   1.157       .  T
C826        N828   1.157       .  T
C829        C830   1.407       .  A
C829        C834   1.412       .  A
C830        H835   1.085       .  S
C830        C831   1.403       .  A
C831        C832   1.410       .  A
C831        C838   1.444       .  S
C832        C833   1.406       .  A
C833        H836   1.085       .  S
C833        C834   1.405       .  A
C834        C837   1.444       .  S
C837        N839   1.157       .  T
C838        N840   1.157       .  T
C841        C842   1.410       .  A
C841        C846   1.417       .  A
C842        H847   1.085       .  S
C842        C843   1.395       .  A
C843        C844   1.406       .  A
C843        C850   1.445       .  S
C844        C845   1.406       .  A
C845        H848   1.085       .  S
C845        C846   1.408       .  A
C846        C849   1.444       .  S
C849        N851   1.158       .  T
C850        N852   1.157       .  T
C853        C854   1.403       .  A
C853        C858   1.417       .  A
C854        H859   1.085       .  S
C854        C855   1.405       .  A
C855        C856   1.417       .  A
C855        C862   1.445       .  S
C856        C857   1.404       .  A
C857        H860   1.084   1_554  S
C857        C858   1.410       .  A
C858        C861   1.443       .  S
C861        N863   1.157   1_554  T
C862        N864   1.157       .  T
C865        C866   1.406       .  A
C865        C870   1.420       .  A
C866        H871   1.084       .  S
C866        C867   1.407       .  A
C867        C868   1.413       .  A
C867        C874   1.443       .  S
C868        C869   1.398       .  A
C869        H872   1.085       .  S
C869        C870   1.395       .  A
C870        C873   1.447       .  S
C873        N875   1.157       .  T
C874        N876   1.157       .  T
C877        C878   1.412       .  A
C877        C882   1.423       .  A
C878        H883   1.084       .  S
C878        C879   1.401       .  A
C879        C880   1.408       .  A
C879        C886   1.445       .  S
C880        C881   1.403       .  A
C881        H884   1.085       .  S
C881        C882   1.411       .  A
C882        C885   1.443       .  S
C885        N887   1.157       .  T
C886        N888   1.157       .  T
C889        C890   1.403       .  A
C889        C894   1.420       .  A
C890        H895   1.084       .  S
C890        C891   1.404       .  A
C891        C892   1.415       .  A
C891        C898   1.444       .  S
C892        C893   1.397       .  A
C893        H896   1.085       .  S
C893        C894   1.395       .  A
C894        C897   1.447       .  S
C897        N899   1.158       .  T
C898        N900   1.157       .  T
C901        C902   1.404       .  A
C901        C906   1.417       .  A
C902        H907   1.085       .  S
C902        C903   1.407       .  A
C903        C904   1.415       .  A
C903        C910   1.444       .  S
C904        C905   1.402       .  A
C905        H908   1.085   1_545  S
C905        C906   1.407       .  A
C906        C909   1.444       .  S
C909        N911   1.157   1_545  T
C910        N912   1.157       .  T
C913        C914   1.405       .  A
C913        C918   1.417       .  A
C914        H919   1.085       .  S
C914        C915   1.402       .  A
C915        C916   1.412       .  A
C915        C922   1.444       .  S
C916        C917   1.397       .  A
C917        H920   1.085       .  S
C917        C918   1.393       .  A
C918        C921   1.447       .  S
C921        N923   1.158   1_565  T
C922        N924   1.157       .  T
C925        C926   1.398       .  A
C925        C930   1.415       .  A
C926        H931   1.085       .  S
C926        C927   1.407       .  A
C927        C928   1.427       .  A
C927        C934   1.444       .  S
C928        C929   1.403       .  A
C929        H932   1.084       .  S
C929        C930   1.394       .  A
C930        C933   1.447       .  S
C933        N935   1.157       .  T
C934        N936   1.157       .  T
C937        C938   1.406       .  A
C937        C942   1.410   1_545  A
C938        H943   1.085       .  S
C938        C939   1.403       .  A
C939        C940   1.413       .  A
C939        C946   1.444       .  S
C940        C941   1.408       .  A
C941        H944   1.085       .  S
C941        C942   1.404   1_545  A
C942        C945   1.444       .  S
C945        N947   1.157       .  T
C946        N948   1.157       .  T
C949        C950   1.412       .  A
C949        C954   1.416       .  A
C950        H955   1.084       .  S
C950        C951   1.395       .  A
C951        C952   1.408       .  A
C951        C958   1.446       .  S
C952        C953   1.408       .  A
C953        H956   1.084       .  S
C953        C954   1.411       .  A
C954        C957   1.442       .  S
C957        N959   1.157       .  T
C958        N960   1.157       .  T
C961        C962   1.411       .  A
C961        C966   1.421       .  A
C962        H967   1.084       .  S
C962        C963   1.406       .  A
C963        C964   1.408       .  A
C963        C970   1.444       .  S
C964        C965   1.403       .  A
C965        H968   1.085       .  S
C965        C966   1.408       .  A
C966        C969   1.443       .  S
C969        N971   1.157       .  T
C970        N972   1.157       .  T
C973        C974   1.400   1_455  A
C973        C978   1.410       .  A
C974        H979   1.085       .  S
C974        C975   1.404   1_655  A
C975        C976   1.420       .  A
C975        C982   1.444   1_455  S
C976        C977   1.408       .  A
C977        H980   1.084       .  S
C977        C978   1.406       .  A
C978        C981   1.444       .  S
C981        N983   1.157       .  T
C982        N984   1.157       .  T
C985        C986   1.404       .  A
C985        C990   1.417       .  A
C986        H991   1.085       .  S
C986        C987   1.405       .  A
C987        C988   1.414       .  A
C987        C994   1.444       .  S
C988        C989   1.403       .  A
C989        H992   1.085       .  S
C989        C990   1.409       .  A
C990        C993   1.443       .  S
C993        N995   1.157       .  T
C994        N996   1.157       .  T
C997        C998   1.403       .  A
C997       C1002   1.414       .  A
C998       H1003   1.085       .  S
C998        C999   1.410       .  A
C999       C1000   1.420       .  A
C999       C1006   1.444       .  S
C1000      C1001   1.405       .  A
C1001      H1004   1.085       .  S
C1001      C1002   1.405       .  A
C1002      C1005   1.444       .  S
C1005      N1007   1.157       .  T
C1006      N1008   1.157       .  T
C1009      C1010   1.398       .  A
C1009      C1014   1.414       .  A
C1010      H1015   1.085       .  S
C1010      C1011   1.396       .  A
C1011      C1012   1.419       .  A
C1011      C1018   1.446       .  S
C1012      C1013   1.406       .  A
C1013      H1016   1.085       .  S
C1013      C1014   1.407       .  A
C1014      C1017   1.443       .  S
C1017      N1019   1.157       .  T
C1018      N1020   1.157       .  T
C1021      C1022   1.409       .  A
C1021      C1026   1.423       .  A
C1022      H1027   1.084       .  S
C1022      C1023   1.411       .  A
C1023      C1024   1.412       .  A
C1023      C1030   1.443       .  S
C1024      C1025   1.400   1_455  A
C1025      H1028   1.085       .  S
C1025      C1026   1.406   1_655  A
C1026      C1029   1.444   1_455  S
C1029      N1031   1.157       .  T
C1030      N1032   1.157       .  T
C1033      C1034   1.407       .  A
C1033      C1038   1.407       .  A
C1034      H1039   1.085       .  S
C1034      C1035   1.406       .  A
C1035      C1036   1.415       .  A
C1035      C1042   1.443       .  S
C1036      C1037   1.412       .  A
C1037      H1040   1.085       .  S
C1037      C1038   1.395       .  A
C1038      C1041   1.445       .  S
C1041      N1043   1.157       .  T
C1042      N1044   1.157       .  T
C1045      C1046   1.406       .  A
C1045      C1050   1.409       .  A
C1046      H1051   1.085       .  S
C1046      C1047   1.408       .  A
C1047      C1048   1.417       .  A
C1047      C1054   1.443       .  S
C1048      C1049   1.411       .  A
C1049      H1052   1.085       .  S
C1049      C1050   1.405       .  A
C1050      C1053   1.444       .  S
C1053      N1055   1.157       .  T
C1054      N1056   1.157       .  T
C1057      C1058   1.413       .  A
C1057      C1062   1.415       .  A
C1058      H1063   1.085       .  S
C1058      C1059   1.395       .  A
C1059      C1060   1.406       .  A
C1059      C1066   1.445       .  S
C1060      C1061   1.408       .  A
C1061      H1064   1.085       .  S
C1061      C1062   1.407       .  A
C1062      C1065   1.443       .  S
C1065      N1067   1.157       .  T
C1066      N1068   1.157       .  T
C1069      C1070   1.402       .  A
C1069      C1074   1.419       .  A
C1070      H1075   1.085       .  S
C1070      C1071   1.402       .  A
C1071      C1072   1.420       .  A
C1071      C1078   1.445       .  S
C1072      C1073   1.404       .  A
C1073      H1076   1.084   1_565  S
C1073      C1074   1.409       .  A
C1074      C1077   1.443       .  S
C1077      N1079   1.157       .  T
C1078      N1080   1.157       .  T
C1081      C1082   1.405       .  A
C1081      C1086   1.409       .  A
C1082      H1087   1.085       .  S
C1082      C1083   1.408       .  A
C1083      C1084   1.418       .  A
C1083      C1090   1.444       .  S
C1084      C1085   1.409       .  A
C1085      H1088   1.084       .  S
C1085      C1086   1.404       .  A
C1086      C1089   1.443   1_655  S
C1089      N1091   1.157       .  T
C1090      N1092   1.157       .  T
C1093      C1094   1.407       .  A
C1093      C1098   1.417       .  A
C1094      H1099   1.084       .  S
C1094      C1095   1.405       .  A
C1095      C1096   1.410       .  A
C1095      C1102   1.443       .  S
C1096      C1097   1.397       .  A
C1097      H1100   1.086       .  S
C1097      C1098   1.394       .  A
C1098      C1101   1.444       .  S
C1101      N1103   1.157       .  T
C1102      N1104   1.157       .  T
C1105      C1106   1.402       .  A
C1105      C1110   1.415       .  A
C1106      H1111   1.085   1_556  S
C1106      C1107   1.405       .  A
C1107      C1108   1.416       .  A
C1107      C1114   1.443       .  S
C1108      C1109   1.403       .  A
C1109      H1112   1.085       .  S
C1109      C1110   1.402       .  A
C1110      C1113   1.445       .  S
C1113      N1115   1.157       .  T
C1114      N1116   1.157       .  T
C1117      C1118   1.403       .  A
C1117      C1122   1.418       .  A
C1118      H1123   1.085       .  S
C1118      C1119   1.407       .  A
C1119      C1120   1.419       .  A
C1119      C1126   1.444       .  S
C1120      C1121   1.404       .  A
C1121      H1124   1.085       .  S
C1121      C1122   1.404       .  A
C1122      C1125   1.445       .  S
C1125      N1127   1.157       .  T
C1126      N1128   1.157       .  T
C1129      C1130   1.410       .  A
C1129      C1134   1.413       .  A
C1130      H1135   1.085       .  S
C1130      C1131   1.397       .  A
C1131      C1132   1.410       .  A
C1131      C1138   1.445       .  S
C1132      C1133   1.408       .  A
C1133      H1136   1.085       .  S
C1133      C1134   1.403       .  A
C1134      C1137   1.443       .  S
C1137      N1139   1.157       .  T
C1138      N1140   1.157       .  T
C1141      C1142   1.408       .  A
C1141      C1146   1.412       .  A
C1142      H1147   1.085       .  S
C1142      C1143   1.401       .  A
C1143      C1144   1.409       .  A
C1143      C1150   1.443       .  S
C1144      C1145   1.408       .  A
C1145      H1148   1.085       .  S
C1145      C1146   1.406       .  A
C1146      C1149   1.443   1_556  S
C1149      N1151   1.157       .  T
C1150      N1152   1.157       .  T
C1153      C1154   1.411       .  A
C1153      C1158   1.412       .  A
C1154      H1159   1.085       .  S
C1154      C1155   1.400       .  A
C1155      C1156   1.411       .  A
C1155      C1162   1.445       .  S
C1156      C1157   1.407       .  A
C1157      H1160   1.081       .  S
C1157      C1158   1.400       .  A
C1158      C1161   1.444       .  S
C1161      N1163   1.157       .  T
C1162      N1164   1.158       .  T
C1165      C1166   1.407       .  A
C1165      C1170   1.412       .  A
C1166      H1171   1.085       .  S
C1166      C1167   1.403       .  A
C1167      C1168   1.411       .  A
C1167      C1174   1.443   1_655  S
C1168      C1169   1.406       .  A
C1169      H1172   1.085       .  S
C1169      C1170   1.399       .  A
C1170      C1173   1.445       .  S
C1173      N1175   1.157       .  T
C1174      N1176   1.157       .  T
C1177      C1178   1.407       .  A
C1177      C1182   1.409       .  A
C1178      H1183   1.085       .  S
C1178      C1179   1.403       .  A
C1179      C1180   1.414       .  A
C1179      C1186   1.442       .  S
C1180      C1181   1.413       .  A
C1181      H1184   1.084       .  S
C1181      C1182   1.401       .  A
C1182      C1185   1.445       .  S
C1185      N1187   1.158       .  T
C1186      N1188   1.157       .  T
C1189      C1190   1.414       .  A
C1189      C1194   1.418       .  A
C1190      H1195   1.084       .  S
C1190      C1191   1.407       .  A
C1191      C1192   1.408       .  A
C1191      C1198   1.444       .  S
C1192      C1193   1.403       .  A
C1193      H1196   1.085       .  S
C1193      C1194   1.400       .  A
C1194      C1197   1.444       .  S
C1197      N1199   1.157       .  T
C1198      N1200   1.157       .  T
C1201      C1202   1.410       .  A
C1201      C1206   1.417       .  A
C1202      H1207   1.084       .  S
C1202      C1203   1.407       .  A
C1203      C1204   1.411       .  A
C1203      C1210   1.443       .  S
C1204      C1205   1.401       .  A
C1205      H1208   1.085       .  S
C1205      C1206   1.399       .  A
C1206      C1209   1.445       .  S
C1209      N1211   1.157       .  T
C1210      N1212   1.157       .  T
C1213      C1214   1.403       .  A
C1213      C1218   1.421       .  A
C1214      H1219   1.085       .  S
C1214      C1215   1.395       .  A
C1215      C1216   1.413       .  A
C1215      C1222   1.446       .  S
C1216      C1217   1.400       .  A
C1217      H1220   1.085       .  S
C1217      C1218   1.406       .  A
C1218      C1221   1.444       .  S
C1221      N1223   1.157       .  T
C1222      N1224   1.157       .  T
C1225      C1226   1.406       .  A
C1225      C1230   1.421       .  A
C1226      H1231   1.085       .  S
C1226      C1227   1.399       .  A
C1227      C1228   1.412       .  A
C1227      C1234   1.445       .  S
C1228      C1229   1.400       .  A
C1229      H1232   1.085       .  S
C1229      C1230   1.406       .  A
C1230      C1233   1.443       .  S
C1233      N1235   1.157       .  T
C1234      N1236   1.157       .  T
C1237      C1238   1.406       .  A
C1237      C1242   1.409       .  A
C1238      H1243   1.085       .  S
C1238      C1239   1.409       .  A
C1239      C1240   1.419       .  A
C1239      C1246   1.442       .  S
C1240      C1241   1.409       .  A
C1241      H1244   1.084       .  S
C1241      C1242   1.396       .  A
C1242      C1245   1.445       .  S
C1245      N1247   1.157       .  T
C1246      N1248   1.157       .  T
C1249      C1250   1.407       .  A
C1249      C1254   1.425       .  A
C1250      H1255   1.083       .  S
C1250      C1251   1.400       .  A
C1251      C1252   1.414       .  A
C1251      C1258   1.445       .  S
C1252      C1253   1.400       .  A
C1253      H1256   1.085       .  S
C1253      C1254   1.405       .  A
C1254      C1257   1.443       .  S
C1257      N1259   1.157       .  T
C1258      N1260   1.157       .  T
C1261      C1262   1.400       .  A
C1261      C1266   1.409       .  A
C1262      H1267   1.085       .  S
C1262      C1263   1.403       .  A
C1263      C1264   1.416       .  A
C1263      C1270   1.444       .  S
C1264      C1265   1.405       .  A
C1265      H1268   1.085       .  S
C1265      C1266   1.401       .  A
C1266      C1269   1.445       .  S
C1269      N1271   1.157       .  T
C1270      N1272   1.157       .  T
C1273      C1274   1.413       .  A
C1273      C1278   1.419       .  A
C1274      H1279   1.084       .  S
C1274      C1275   1.406       .  A
C1275      C1276   1.409       .  A
C1275      C1282   1.443       .  S
C1276      C1277   1.404       .  A
C1277      H1280   1.085       .  S
C1277      C1278   1.398       .  A
C1278      C1281   1.445       .  S
C1281      N1283   1.158       .  T
C1282      N1284   1.157       .  T
C1285      C1286   1.411       .  A
C1285      C1290   1.416       .  A
C1286      H1291   1.084       .  S
C1286      C1287   1.403       .  A
C1287      C1288   1.408       .  A
C1287      C1294   1.444       .  S
C1288      C1289   1.404       .  A
C1289      H1292   1.085       .  S
C1289      C1290   1.400       .  A
C1290      C1293   1.445       .  S
C1293      N1295   1.157       .  T
C1294      N1296   1.157       .  T
C1297      C1298   1.407       .  A
C1297      C1302   1.424       .  A
C1298      H1303   1.084       .  S
C1298      C1299   1.398       .  A
C1299      C1300   1.416       .  A
C1299      C1306   1.446       .  S
C1300      C1301   1.402       .  A
C1301      H1304   1.085       .  S
C1301      C1302   1.409       .  A
C1302      C1305   1.442       .  S
C1305      N1307   1.157       .  T
C1306      N1308   1.157       .  T
C1309      C1310   1.403       .  A
C1309      C1314   1.412       .  A
C1310      H1315   1.085       .  S
C1310      C1311   1.400       .  A
C1311      C1312   1.414       .  A
C1311      C1318   1.445       .  S
C1312      C1313   1.409       .  A
C1313      H1316   1.084       .  S
C1313      C1314   1.408       .  A
C1314      C1317   1.443       .  S
C1317      N1319   1.157       .  T
C1318      N1320   1.157       .  T
C1321      C1322   1.402       .  A
C1321      C1326   1.414       .  A
C1322      H1327   1.085       .  S
C1322      C1323   1.407       .  A
C1323      C1324   1.423       .  A
C1323      C1330   1.444       .  S
C1324      C1325   1.404       .  A
C1325      H1328   1.081       .  S
C1325      C1326   1.400       .  A
C1326      C1329   1.445       .  S
C1329      N1331   1.157       .  T
C1330      N1332   1.158       .  T
C1333      C1334   1.396       .  A
C1333      C1338   1.411       .  A
C1334      H1339   1.085       .  S
C1334      C1335   1.393       .  A
C1335      C1336   1.424       .  A
C1335      C1342   1.444       .  S
C1336      C1337   1.409       .  A
C1337      H1340   1.084       .  S
C1337      C1338   1.405       .  A
C1338      C1341   1.443       .  S
C1341      N1343   1.157       .  T
C1342      N1344   1.157       .  T
C1345      C1346   1.406       .  A
C1345      C1350   1.422       .  A
C1346      H1351   1.084       .  S
C1346      C1347   1.394       .  A
C1347      C1348   1.411       .  A
C1347      C1354   1.446       .  S
C1348      C1349   1.399       .  A
C1349      H1352   1.085       .  S
C1349      C1350   1.401       .  A
C1350      C1353   1.443       .  S
C1353      N1355   1.157       .  T
C1354      N1356   1.157       .  T
C1357      C1358   1.413       .  A
C1357      C1362   1.417       .  A
C1358      H1363   1.084       .  S
C1358      C1359   1.406       .  A
C1359      C1360   1.411       .  A
C1359      C1366   1.443       .  S
C1360      C1361   1.406       .  A
C1361      H1364   1.085       .  S
C1361      C1362   1.393       .  A
C1362      C1365   1.445       .  S
C1365      N1367   1.157       .  T
C1366      N1368   1.157       .  T
C1369      C1370   1.411       .  A
C1369      C1374   1.418       .  A
C1370      H1375   1.084       .  S
C1370      C1371   1.407       .  A
C1371      C1372   1.410       .  A
C1371      C1378   1.443       .  S
C1372      C1373   1.404       .  A
C1373      H1376   1.085       .  S
C1373      C1374   1.400       .  A
C1374      C1377   1.445       .  S
C1377      N1379   1.158       .  T
C1378      N1380   1.157       .  T
C1381      C1382   1.404       .  A
C1381      C1386   1.421       .  A
C1382      H1387   1.085       .  S
C1382      C1383   1.395       .  A
C1383      C1384   1.413       .  A
C1383      C1390   1.446       .  S
C1384      C1385   1.402       .  A
C1385      H1388   1.085       .  S
C1385      C1386   1.407       .  A
C1386      C1389   1.443       .  S
C1389      N1391   1.157       .  T
C1390      N1392   1.157       .  T
C1393      C1394   1.405       .  A
C1393      C1398   1.409       .  A
C1394      H1399   1.085       .  S
C1394      C1395   1.400       .  A
C1395      C1396   1.416       .  A
C1395      C1402   1.444       .  S
C1396      C1397   1.414       .  A
C1397      H1400   1.084       .  S
C1397      C1398   1.408       .  A
C1398      C1401   1.443       .  S
C1401      N1403   1.157       .  T
C1402      N1404   1.157       .  T
C1405      C1406   1.407       .  A
C1405      C1410   1.413       .  A
C1406      H1411   1.085       .  S
C1406      C1407   1.405       .  A
C1407      C1408   1.408       .  A
C1407      C1414   1.443       .  S
C1408      C1409   1.401       .  A
C1409      H1412   1.085       .  S
C1409      C1410   1.399       .  A
C1410      C1413   1.444       .  S
C1413      N1415   1.157       .  T
C1414      N1416   1.157       .  T
C1417      C1418   1.405       .  A
C1417      C1422   1.421       .  A
C1418      H1423   1.084       .  S
C1418      C1419   1.400       .  A
C1419      C1420   1.412       .  A
C1419      C1426   1.445       .  S
C1420      C1421   1.399       .  A
C1421      H1424   1.085       .  S
C1421      C1422   1.403       .  A
C1422      C1425   1.444       .  S
C1425      N1427   1.157       .  T
C1426      N1428   1.157       .  T
C1429      C1430   1.408       .  A
C1429      C1434   1.423       .  A
C1430      H1435   1.084       .  S
C1430      C1431   1.400       .  A
C1431      C1432   1.410       .  A
C1431      C1438   1.445       .  S
C1432      C1433   1.401       .  A
C1433      H1436   1.085       .  S
C1433      C1434   1.408       .  A
C1434      C1437   1.444       .  S
C1437      N1439   1.158       .  T
C1438      N1440   1.157       .  T
