geometry optimzed in LAMMPS
_audit_creation_date              2020-11-30 
_audit_creation_method            'lammps2cif' 
_symmetry_space_group_name_H-M    'P1' 
_symmetry_Int_Tables_number       1 
_symmetry_cell_setting            triclinic 
loop_ 
_symmetry_equiv_pos_as_xyz 
  x,y,z 
_cell_length_a                    25.21070249 
_cell_length_b                    25.26815021513871 
_cell_length_c                    25.27278492011957 
_cell_angle_alpha                 89.2582077795313 
_cell_angle_beta                  89.38807259950126 
_cell_angle_gamma                 90.50762826646083 
loop_ 
_atom_site_label 
_atom_site_type_symbol 
_atom_site_fract_x 
_atom_site_fract_y 
_atom_site_fract_z 
_atom_site_charge 
O1          O  0.56622472  0.07755495  0.89474758    -0.77000
O2          O  0.55241472  0.08347558  0.59584494    -0.78600
O3          O  0.66395302  0.06341223  0.73362075    -0.75600
O4          O  0.54017171  0.18487705  0.75831032    -0.74000
O5          O  0.44935516  0.18343812  0.76332706    -0.75800
O6          O  0.66336028  0.97275241  0.73696772    -0.76700
O7          O  0.59490503  0.13187583  0.65901497    -0.78000
O8          O  0.61143699  0.12053470  0.82726066    -0.78300
Eu9        Eu  0.57141702  0.09346744  0.74540954     2.39200
O10         O  0.49410847  0.09297081  0.69468699    -0.85800
O11         O  0.57288636  0.01795170  0.80106429    -0.89400
C12         C  0.60253678  0.10956204  0.87625689     1.05300
C13         C  0.58377405  0.12119475  0.61074356     1.05100
C14         C  0.68689859  0.01795399  0.73141284     1.05000
C15         C  0.49479929  0.20716466  0.76539175     1.02900
H16         H  0.60084392  0.01780371  0.66848973     0.32600
O17         O  0.57071095  0.01757022  0.69250864    -0.98200
H18         H  0.49766644  0.12137277  0.82641487     0.32700
O19         O  0.49722585  0.09131182  0.80328681    -1.00700
O20         O  0.43347169  0.94979476  0.60379576    -0.78000
O21         O  0.43364102  0.95514496  0.90405370    -0.77500
O22         O  0.59599420  0.90570713  0.66323477    -0.76000
O23         O  0.39285831  0.12941282  0.66814961    -0.79300
O24         O  0.38320004  0.11373146  0.83794292    -0.77100
O25         O  0.60938961  0.91361102  0.83230476    -0.75800
O26         O  0.45075908  0.84865969  0.76527829    -0.77300
O27         O  0.32705010  0.97049343  0.74239461    -0.79200
O28         O  0.54159497  0.84989039  0.76080322    -0.76000
O29         O  0.32722727  0.06115156  0.74134802    -0.78700
O30         O  0.55420554  0.95315060  0.59815116    -0.74400
O31         O  0.56318858  0.95451143  0.89863515    -0.74400
O32         O  0.43358408  0.07451615  0.90229700    -0.74100
O33         O  0.43239608  0.08203609  0.60188426    -0.77600
O34         O  0.39432215  0.90148221  0.67143401    -0.77000
O35         O  0.38351616  0.91444370  0.84095621    -0.75300
Eu36       Eu  0.49385334  0.01703689  0.64130877     2.39800
Eu37       Eu  0.49846573  0.01613552  0.85871379     2.39600
Eu38       Eu  0.57131871  0.94215474  0.74852377     2.38400
Eu39       Eu  0.41986399  0.09109562  0.75195194     2.39900
Eu40       Eu  0.41960278  0.94054623  0.75426043     2.39800
O41         O  0.42068679  0.01584067  0.80740985    -0.89700
O42         O  0.49425959  0.94164105  0.69748547    -0.88600
C43         C  0.40355315  0.91189367  0.62240017     1.05400
C44         C  0.39545356  0.92413630  0.88927378     1.04200
C45         C  0.58579638  0.91646355  0.61461335     1.03500
C46         C  0.40192354  0.11900507  0.61933165     1.05600
C47         C  0.39514957  0.10407997  0.88636094     1.04500
C48         C  0.59923286  0.92279915  0.88127116     1.03300
C49         C  0.49649428  0.82614337  0.76731736     1.03400
C50         C  0.30392842  0.01571526  0.73746511     1.06000
H51         H  0.49739045  0.91086277  0.82905972     0.33400
O52         O  0.49690474  0.94129330  0.80548983    -1.01900
H53         H  0.38891570  0.01552507  0.67551479     0.35400
O54         O  0.41952840  0.01580178  0.69809725    -1.04500
C55         C  0.64766732  0.21606366  0.49225361     0.00600
O56         O  0.56379888  0.08122664  0.39635717    -0.77000
O57         O  0.55850043  0.07296505  0.09604121    -0.78600
O58         O  0.66644494  0.05892447  0.25920266    -0.75600
O59         O  0.54465143  0.18087924  0.23378698    -0.74000
O60         O  0.45396169  0.18072954  0.23976889    -0.75800
O61         O  0.66499288  0.96836746  0.26156701    -0.76700
O62         O  0.60915974  0.11417677  0.15850109    -0.78000
O63         O  0.60450208  0.12751297  0.32822610    -0.78300
Eu64       Eu  0.57473752  0.08929330  0.24594439     2.39200
O65         O  0.49709754  0.08922365  0.19534613    -0.85800
O66         O  0.57439757  0.01453377  0.30187044    -0.89400
C67         C  0.59520982  0.11791859  0.37749710     1.05300
C68         C  0.59670145  0.10396258  0.11046930     1.05100
C69         C  0.68879051  0.01356149  0.26544961     1.05000
C70         C  0.49918521  0.20378294  0.23251835     1.02900
H71         H  0.60419306  0.01276993  0.17135122     0.32600
O72         O  0.57276452  0.01337269  0.19348843    -0.98200
H73         H  0.50115278  0.12272164  0.32355709     0.32700
O74         O  0.50058447  0.09056500  0.30331933    -1.00700
O75         O  0.42838736  0.95100916  0.10537186    -0.78000
O76         O  0.43998041  0.95058013  0.40478366    -0.77500
O77         O  0.60605169  0.91020733  0.16471317    -0.76000
O78         O  0.38438639  0.11865321  0.17003969    -0.79300
O79         O  0.39713668  0.12505739  0.33804240    -0.77100
O80         O  0.60176363  0.90231811  0.33304416    -0.75800
O81         O  0.45059491  0.84673939  0.24081113    -0.77300
O82         O  0.32931309  0.97071194  0.26816321    -0.79200
O83         O  0.54136301  0.84714575  0.23721249    -0.76000
O84         O  0.33111524  0.06131415  0.26630166    -0.78700
O85         O  0.55591510  0.94998275  0.10047193    -0.74400
O86         O  0.56431209  0.95203586  0.39876429    -0.74400
O87         O  0.44023902  0.07864515  0.40296363    -0.74100
O88         O  0.42881753  0.07564123  0.10384923    -0.77600
O89         O  0.38231377  0.90965980  0.17321940    -0.77000
O90         O  0.39530181  0.90311702  0.34219173    -0.75300
Eu91       Eu  0.49424291  0.01340522  0.14258881     2.39800
Eu92       Eu  0.50080089  0.01507449  0.35960802     2.39600
Eu93       Eu  0.57235517  0.93867456  0.24963552     2.38400
Eu94       Eu  0.42325878  0.08949040  0.25281983     2.39900
Eu95       Eu  0.42080034  0.93852310  0.25573813     2.39800
O96         O  0.42355175  0.01445176  0.30843844    -0.89700
O97         O  0.49497093  0.93912924  0.19912424    -0.88600
C98         C  0.39211044  0.91909653  0.12401330     1.05400
C99         C  0.40714804  0.91398041  0.39017392     1.04200
C100        C  0.59310596  0.91873158  0.11641081     1.03500
C101        C  0.39334660  0.10808634  0.12120209     1.05600
C102        C  0.40790681  0.11471755  0.38660586     1.04500
C103        C  0.59448843  0.91471321  0.38159953     1.03300
C104        C  0.49578551  0.82399739  0.23378929     1.03400
C105        C  0.30708923  0.01640206  0.27139812     1.06000
H106        H  0.49855652  0.90622301  0.32837528     0.33400
O107        O  0.49818230  0.93807100  0.30688461    -1.01900
H108        H  0.38704840  0.01387788  0.18047616     0.35400
O109        O  0.41968224  0.01376726  0.20021503    -1.04500
C110        C  0.29868666  0.86176930  0.00765018     0.00600
C111        C  0.68898905  0.86147359  0.00025183     0.00600
C112        C  0.64958458  0.82243141  0.50027161     0.00600
C113        C  0.29871929  0.16131550  0.00265261     0.00600
C114        C  0.69547797  0.16333762  0.99404629     0.00600
C115        C  0.34890401  0.21258554  0.49997383     0.00600
C116        C  0.34826874  0.81650671  0.50760633     0.00600
O117        O  0.83110341  0.77804543  0.54752374    -0.77000
O118        O  0.04454556  0.75367801  0.33315645    -0.78600
O119        O  0.89544465  0.85168767  0.39239146    -0.75600
O120        O  0.88774360  0.68285655  0.39681636    -0.74000
O121        O  0.93612261  0.61695986  0.43621211    -0.75800
O122        O  0.93409079  0.91621166  0.44258029    -0.76700
O123        O  0.95376502  0.75387181  0.33408710    -0.78000
O124        O  0.83154088  0.77991111  0.45696408    -0.78300
Eu125      Eu  0.92345703  0.76650121  0.42620042     2.39200
O126        O  0.99937371  0.71384513  0.42579753    -0.85800
O127        O  0.92322291  0.81773154  0.50274036    -0.89400
C128        C  0.80838137  0.78436794  0.50242675     1.05300
C129        C  0.99906731  0.74829112  0.31067979     1.05100
C130        C  0.90335481  0.90000691  0.40534857     1.05000
C131        C  0.89947817  0.63416710  0.40505888     1.02900
H132        H  0.99812910  0.84382397  0.39393151     0.32600
O133        O  0.99859637  0.82197154  0.42557719    -0.98200
H134        H  0.88997609  0.68839602  0.50023643     0.32700
O135        O  0.92200354  0.70966587  0.50060972    -1.00700
O136        O  0.16645750  0.78066679  0.45531605    -0.78000
O137        O  0.95375446  0.74955809  0.66824844    -0.77500
O138        O  0.05793066  0.91862172  0.43807224    -0.76000
O139        O  0.06486504  0.61819787  0.43729024    -0.79300
O140        O  0.93358069  0.61215692  0.56008640    -0.77100
O141        O  0.93549303  0.91086925  0.57001798    -0.75800
O142        O  0.10069970  0.84818966  0.61367999    -0.77300
O143        O  0.10912923  0.67917856  0.60352004    -0.79200
O144        O  0.05844344  0.91434393  0.56813081    -0.76000
O145        O  0.06174683  0.61416043  0.56201037    -0.78700
O146        O  0.09994021  0.85547603  0.38875847    -0.74400
O147        O  0.89389805  0.84335152  0.61631421    -0.74400
O148        O  0.88544110  0.67546204  0.60310798    -0.74100
O149        O  0.11188279  0.68555245  0.39613537    -0.77600
O150        O  0.16546234  0.77738529  0.54589912    -0.77000
O151        O  0.04456728  0.75198461  0.66719727    -0.75300
Eu152      Eu  0.07465841  0.76884600  0.42466427     2.39800
Eu153      Eu  0.92235183  0.76139042  0.57710724     2.39600
Eu154      Eu  0.99777015  0.87379050  0.50327715     2.38400
Eu155      Eu  0.99904909  0.65652304  0.49961900     2.39900
Eu156      Eu  0.07376195  0.76426857  0.57558169     2.39800
O157        O  0.99856170  0.70870284  0.57582940    -0.89700
O158        O  0.07401279  0.82084682  0.50117795    -0.88600
C159        C  0.18901033  0.78327065  0.50080325     1.05400
C160        C  0.99933389  0.74654071  0.69066748     1.04200
C161        C  0.08932302  0.90366857  0.40032649     1.03500
C162        C  0.10160299  0.63645236  0.40557170     1.05600
C163        C  0.89645333  0.62721307  0.59221280     1.04500
C164        C  0.90366196  0.89243742  0.60655651     1.03300
C165        C  0.09017910  0.89704163  0.60422102     1.03400
C166        C  0.09799406  0.63053290  0.59398600     1.06000
H167        H  0.99754642  0.83654318  0.61035231     0.33400
O168        O  0.99768098  0.81665287  0.57796031    -1.00300
H169        H  0.10725355  0.69174216  0.49932821     0.35400
O170        O  0.07509639  0.71231745  0.49943589    -1.04500
O171        O  0.83030817  0.24994783  0.54825870    -0.77000
O172        O  0.04294207  0.28065039  0.33360241    -0.78600
O173        O  0.88726322  0.35188451  0.40102307    -0.75600
O174        O  0.89527030  0.18256128  0.38939391    -0.74000
O175        O  0.93659469  0.11618240  0.43544788    -0.75800
O176        O  0.93485466  0.41680864  0.44240880    -0.76700
O177        O  0.95210607  0.27711478  0.33536134    -0.78000
O178        O  0.83057066  0.25563579  0.45769141    -0.78300
Eu179      Eu  0.92273165  0.26638780  0.42755229     2.39200
O180        O  0.99861556  0.21371208  0.42555051    -0.85800
O181        O  0.92268636  0.31771589  0.50413627    -0.89400
C182        C  0.80721479  0.24889319  0.50285976     1.05300
C183        C  0.99715775  0.28260086  0.31138629     1.05100
C184        C  0.89834823  0.40049862  0.41073781     1.05000
C185        C  0.90499617  0.13359357  0.39924932     1.02900
H186        H  0.99810109  0.34607595  0.39669593     0.32600
O187        O  0.99815421  0.32224152  0.42681841    -0.98200
H188        H  0.89209345  0.18558469  0.50193801     0.32700
O189        O  0.92249392  0.20910582  0.50197009    -1.00700
O190        O  0.16690189  0.25668673  0.45268329    -0.78000
O191        O  0.95470570  0.27279709  0.67027490    -0.77500
O192        O  0.06503022  0.41877450  0.44497027    -0.76000
O193        O  0.05741271  0.11843627  0.43169932    -0.79300
O194        O  0.93987506  0.11108657  0.56661546    -0.77100
O195        O  0.93048409  0.41090595  0.56355373    -0.75800
O196        O  0.11211844  0.34762638  0.60265943    -0.77300
O197        O  0.09992354  0.17865553  0.61175545    -0.79200
O198        O  0.06269893  0.41361563  0.56488774    -0.76000
O199        O  0.05900612  0.11384904  0.56374774    -0.78700
O200        O  0.11222048  0.35527929  0.40131154    -0.74400
O201        O  0.88325079  0.34361758  0.60456252    -0.74400
O202        O  0.89927449  0.17439524  0.61664783    -0.74100
O203        O  0.09801154  0.18601792  0.38457704    -0.77600
O204        O  0.16682454  0.25398906  0.54330639    -0.77000
O205        O  0.04561908  0.27359881  0.66862435    -0.75300
Eu206      Eu  0.07415888  0.26893955  0.42500137     2.39800
Eu207      Eu  0.92285069  0.26091281  0.57869329     2.39600
Eu208      Eu  0.99823964  0.37369536  0.50327800     2.38400
Eu209      Eu  0.99828365  0.15629182  0.49989907     2.39900
Eu210      Eu  0.07453810  0.26376451  0.57559105     2.39800
O211        O  0.99907136  0.20844681  0.57660399    -0.89700
O212        O  0.07466656  0.32055981  0.50139613    -0.88600
C213        C  0.19010575  0.25117177  0.49768680     1.05400
C214        C  0.00036320  0.27745374  0.69262484     1.04200
C215        C  0.10232058  0.40356873  0.41312801     1.03500
C216        C  0.08780054  0.13697365  0.39413627     1.05600
C217        C  0.90963099  0.12607435  0.60527099     1.04500
C218        C  0.89310675  0.39260769  0.59433944     1.03300
C219        C  0.10050596  0.39638968  0.59457809     1.03400
C220        C  0.08978537  0.13018870  0.60090920     1.06000
H221        H  0.99827255  0.33947643  0.60776225     0.33400
O222        O  0.99828354  0.31687301  0.57727889    -1.01900
H223        H  0.10427214  0.18843852  0.49829265     0.35400
O224        O  0.07386351  0.21139245  0.49921981    -1.04500
C225        C  0.79972606  0.50898232  0.65162491     0.00600
C226        C  0.19414127  0.51445380  0.65093315     0.00600
C227        C  0.84680408  0.01476928  0.30797431     0.00600
C228        C  0.84713844  0.00786246  0.70149675     0.00600
C229        C  0.80535068  0.51702653  0.34901991     0.00600
C230        C  0.19872853  0.52148692  0.35103794     0.00600
C231        C  0.14680318  0.02092931  0.30167520     0.00600
C232        C  0.14523505  0.01436200  0.69870235     0.00600
O233        O  0.73627945  0.68056035  0.95351409    -0.77000
O234        O  0.76023479  0.46724707  0.16825365    -0.78600
O235        O  0.66394804  0.61666051  0.11094011    -0.75600
O236        O  0.83168827  0.62279876  0.10315909    -0.74000
O237        O  0.89709041  0.57335662  0.06442853    -0.75800
O238        O  0.59821790  0.57704548  0.06293056    -0.76700
O239        O  0.76140303  0.55780307  0.16644735    -0.78000
O240        O  0.73529392  0.67990695  0.04404566    -0.78300
Eu241      Eu  0.74786392  0.58785935  0.07442038     2.39200
O242        O  0.80024405  0.51166653  0.07496620    -0.85800
O243        O  0.69507763  0.58866655  0.99871911    -0.89400
C244        C  0.73055135  0.70327858  0.99870829     1.05300
C245        C  0.76606854  0.51271214  0.19036491     1.05100
C246        C  0.61516933  0.60815277  0.09955161     1.05000
C247        C  0.88021486  0.61018334  0.09542093     1.02900
H248        H  0.67062946  0.51378970  0.10831812     0.32600
O249        O  0.69194974  0.51320453  0.07632503    -0.98200
H250        H  0.82583019  0.62026848  0.99954366     0.32700
O251        O  0.80414481  0.58852260  0.99956957    -1.00700
O252        O  0.73180511  0.34517002  0.04690041    -0.78000
O253        O  0.76377809  0.55708763  0.83301971    -0.77500
O254        O  0.59463627  0.45424537  0.06561932    -0.76000
O255        O  0.89484321  0.44420103  0.06230570    -0.79300
O256        O  0.90059425  0.57520192  0.93814934    -0.77100
O257        O  0.60078566  0.57679095  0.93327671    -0.75800
O258        O  0.66260655  0.41037936  0.88995674    -0.77300
O259        O  0.83268040  0.40014914  0.89830689    -0.79200
O260        O  0.59694652  0.45264385  0.93620111    -0.76000
O261        O  0.89857626  0.44657656  0.93964212    -0.78700
O262        O  0.65838491  0.41193919  0.11419487    -0.74400
O263        O  0.66813453  0.61664065  0.88510435    -0.74400
O264        O  0.83679840  0.62380895  0.89593446    -0.74100
O265        O  0.82738669  0.39809837  0.10439679    -0.77600
O266        O  0.73502513  0.34567778  0.95633479    -0.77000
O267        O  0.76084915  0.46647692  0.83419644    -0.75300
Eu268      Eu  0.74450292  0.43690698  0.07694901     2.39800
Eu269      Eu  0.75087368  0.58865053  0.92389665     2.39600
Eu270      Eu  0.63871511  0.51422117  0.99959931     2.38400
Eu271      Eu  0.85685394  0.51107380  0.00060017     2.39900
Eu272      Eu  0.74765648  0.43723020  0.92594850     2.39800
O273        O  0.80324201  0.51217898  0.92523882    -0.89700
O274        O  0.69163399  0.43791266  0.00091292    -0.88600
C275        C  0.72922993  0.32235928  0.00159934     1.05400
C276        C  0.76682276  0.51162303  0.81068427     1.04200
C277        C  0.60999485  0.42272904  0.10316983     1.03500
C278        C  0.87652432  0.40753289  0.09405342     1.05600
C279        C  0.88519368  0.61229212  0.90606847     1.04500
C280        C  0.61897496  0.60780011  0.89588959     1.03300
C281        C  0.61378495  0.42068150  0.90018356     1.03400
C282        C  0.88169148  0.41021380  0.90812697     1.06000
H283        H  0.67474999  0.51359674  0.89198661     0.33400
O284        O  0.69516444  0.51351560  0.92410937    -1.01900
H285        H  0.82043427  0.40351566  0.00178158     0.35400
O286        O  0.80021154  0.43583774  0.00169431    -1.04500
O287        O  0.26094206  0.68019389  0.95561279    -0.77000
O288        O  0.23492690  0.46572680  0.16905794    -0.78600
O289        O  0.16130908  0.62197907  0.10207772    -0.75600
O290        O  0.33210790  0.61393526  0.11149706    -0.74000
O291        O  0.39838751  0.57290422  0.06514082    -0.75800
O292        O  0.09571268  0.57521156  0.06065484    -0.76700
O293        O  0.23744795  0.55641339  0.16793709    -0.78000
O294        O  0.25787432  0.67875415  0.04625161    -0.78300
Eu295      Eu  0.24694410  0.58626730  0.07568105     2.39200
O296        O  0.29981526  0.51034096  0.07679326    -0.85800
O297        O  0.19437181  0.58727995  0.99967125    -0.89400
C298        C  0.26352788  0.70262654  0.00115421     1.05300
C299        C  0.23261699  0.51124226  0.19174457     1.05100
C300        C  0.11245291  0.61147352  0.09227507     1.05000
C301        C  0.38113871  0.60460208  0.10109750     1.02900
H302        H  0.16781027  0.51060587  0.10640480     0.32600
O303        O  0.19130083  0.51076200  0.07590769    -0.98200
H304        H  0.32664556  0.61748712  0.00097403     0.32700
O305        O  0.30325831  0.58707670  0.00084883    -1.00700
O306        O  0.25594729  0.34284385  0.04476440    -0.78000
O307        O  0.23979521  0.55921181  0.83208054    -0.77500
O308        O  0.09447021  0.44533663  0.06002371    -0.76000
O309        O  0.39447065  0.45146973  0.07016727    -0.79300
O310        O  0.40096272  0.57236801  0.93624496    -0.77100
O311        O  0.09954377  0.57796128  0.93879422    -0.75800
O312        O  0.16472596  0.39943797  0.89881598    -0.77300
O313        O  0.33306989  0.41267337  0.88892614    -0.79200
O314        O  0.09859245  0.44606930  0.93964461    -0.76000
O315        O  0.39852795  0.45114148  0.93817778    -0.78700
O316        O  0.15841944  0.39739209  0.10259732    -0.74400
O317        O  0.16674466  0.62571612  0.89816405    -0.74400
O318        O  0.33695885  0.61475458  0.88822225    -0.74100
O319        O  0.32749890  0.40805855  0.11573040    -0.77600
O320        O  0.25848991  0.34459970  0.95411830    -0.77000
O321        O  0.23794759  0.46858059  0.83296111    -0.75300
Eu322      Eu  0.24458743  0.43470171  0.07670981     2.39800
Eu323      Eu  0.25054547  0.58828145  0.92461521     2.39600
Eu324      Eu  0.13847821  0.51161472  0.00007647     2.38400
Eu325      Eu  0.35664358  0.51168025  0.00192815     2.39900
Eu326      Eu  0.24830219  0.43763730  0.92550894     2.39800
O327        O  0.30397641  0.51267768  0.92513289    -0.89700
O328        O  0.19225992  0.43568994  0.00044997    -0.88600
C329        C  0.26126533  0.32044789  0.99930070     1.05400
C330        C  0.23460680  0.51400035  0.80928310     1.04200
C331        C  0.10990295  0.40789258  0.09164805     1.03500
C332        C  0.37646830  0.41947131  0.10674460     1.05600
C333        C  0.38552025  0.60426121  0.89898241     1.04500
C334        C  0.11767525  0.61524531  0.90772894     1.03300
C335        C  0.11588366  0.40944189  0.90873756     1.03400
C336        C  0.38167736  0.42141947  0.90051423     1.06000
H337        H  0.17172464  0.51336096  0.89475025     0.33400
O338        O  0.19443309  0.51308607  0.92523243    -1.01900
H339        H  0.32415129  0.40614629  0.00199146     0.35400
O340        O  0.30128044  0.43646801  0.00177963    -1.04500
C341        C  0.00288174  0.71034203  0.84897657     0.00600
C342        C  0.99917187  0.31449602  0.85147354     0.00600
C343        C  0.50305449  0.66672331  0.80184024     0.00600
C344        C  0.49774711  0.66596243  0.19352776     0.00600
C345        C  0.99118524  0.31106654  0.15152308     0.00600
C346        C  0.99580836  0.70457738  0.15333947     0.00600
C347        C  0.49734380  0.36486990  0.80454110     0.00600
C348        C  0.49308392  0.36313688  0.20121080     0.00600
O349        O  0.60162432  0.39562711  0.42585907    -0.77000
O350        O  0.44515187  0.49198326  0.66443137    -0.78600
O351        O  0.62266297  0.44405751  0.59900740    -0.75600
O352        O  0.47760955  0.35122370  0.55140857    -0.74000
O353        O  0.40950359  0.36891619  0.49489994    -0.75800
O354        O  0.64862279  0.53022304  0.58628028    -0.76700
O355        O  0.50346289  0.42521940  0.64764337    -0.78000
O356        O  0.58621567  0.36826859  0.51122775    -0.78300
Eu357      Eu  0.53366336  0.43270149  0.55666949     2.39200
O358        O  0.44520604  0.46212246  0.55380204    -0.85800
O359        O  0.58785218  0.48770975  0.50330630    -0.89400
C360        C  0.60465548  0.36121308  0.46434551     1.05300
C361        C  0.47155653  0.45035598  0.67819008     1.05100
C362        C  0.65621015  0.48299904  0.60352844     1.05000
C363        C  0.43562763  0.33779505  0.52547852     1.02900
H364        H  0.54279976  0.51948419  0.62368411     0.32600
O365        O  0.52989814  0.51952734  0.58784081    -0.98200
H366        H  0.50352942  0.39467910  0.45587384     0.32700
O367        O  0.50318510  0.43030341  0.46915944    -1.00700
O368        O  0.40098641  0.63956589  0.57350292    -0.78000
O369        O  0.55321836  0.54071161  0.33424909    -0.77500
O370        O  0.57042244  0.61784742  0.62353189    -0.76000
O371        O  0.33300724  0.46592357  0.52027130    -0.79300
O372        O  0.42820772  0.41609817  0.37800650    -0.77100
O373        O  0.66651361  0.56984497  0.47905629    -0.75800
O374        O  0.52227690  0.68302117  0.44666862    -0.77300
O375        O  0.37621508  0.59091863  0.40027253    -0.79200
O376        O  0.58873863  0.66620799  0.50532148    -0.76000
O377        O  0.35085939  0.50461700  0.41313746    -0.78700
O378        O  0.48474756  0.60182967  0.65005166    -0.74400
O379        O  0.64944679  0.51326170  0.41127516    -0.74400
O380        O  0.51391132  0.43138961  0.35120870    -0.74100
O381        O  0.34980027  0.52259747  0.58805159    -0.77600
O382        O  0.41592066  0.66681496  0.48804292    -0.77000
O383        O  0.49411525  0.60683063  0.35063117    -0.75300
Eu384      Eu  0.44196602  0.54990924  0.58396912     2.39800
Eu385      Eu  0.55808225  0.48438948  0.41578003     2.39600
Eu386      Eu  0.58364967  0.57500807  0.53440164     2.38400
Eu387      Eu  0.41575942  0.46022042  0.46564451     2.39900
Eu388      Eu  0.46608127  0.60143203  0.44213804     2.39800
O389        O  0.47006356  0.51439717  0.41125766    -0.89700
O390        O  0.49600167  0.60445325  0.52996194    -0.88600
C391        C  0.39780622  0.67385646  0.53498389     1.05400
C392        C  0.52594028  0.58164113  0.32011326     1.04200
C393        C  0.53136380  0.62080090  0.65747671     1.03500
C394        C  0.31888060  0.49216448  0.56176342     1.05600
C395        C  0.46722663  0.41222438  0.34436782     1.04500
C396        C  0.68042477  0.54380551  0.43726782     1.03300
C397        C  0.56350975  0.69686449  0.47358037     1.03400
C398        C  0.34265555  0.55182846  0.39614602     1.06000
H399        H  0.57693360  0.59462368  0.42381878     0.33400
O400        O  0.55451611  0.57218478  0.44598416    -1.01900
H401        H  0.37648387  0.56087686  0.49639177     0.35400
O402        O  0.41220669  0.54748631  0.49667995    -1.04500
O403        O  0.11929953  0.90876952  0.07454351    -0.77000
O404        O  0.01604480  0.06434135  0.83768720    -0.78600
O405        O  0.06713605  0.88714025  0.90207454    -0.75600
O406        O  0.16098319  0.03104780  0.95087104    -0.74000
O407        O  0.14342750  0.09811243  0.00817614    -0.75800
O408        O  0.98170137  0.85980216  0.91805579    -0.76700
O409        O  0.08446314  0.00804958  0.85480617    -0.78000
O410        O  0.14532978  0.92350069  0.98860474    -0.78300
Eu411      Eu  0.07896985  0.97535358  0.94526027     2.39200
O412        O  0.04912709  0.06322691  0.94827507    -0.85800
O413        O  0.02456047  0.92093804  0.99933385    -0.89400
C414        C  0.15330451  0.90568992  0.03556968     1.05300
C415        C  0.05839999  0.03914309  0.82408222     1.05100
C416        C  0.02849974  0.85300557  0.89904293     1.05000
C417        C  0.17457700  0.07249125  0.97742023     1.02900
H418        H  0.99120158  0.96604369  0.87940178     0.32600
O419        O  0.99147161  0.97884677  0.91527039    -0.98200
H420        H  0.11814574  0.00550138  0.04592678     0.32700
O421        O  0.08229906  0.00562066  0.03277026    -1.00700
O422        O  0.87217167  0.10858010  0.93128415    -0.78000
O423        O  0.97473590  0.95551978  0.17000856    -0.77500
O424        O  0.89330348  0.93768599  0.87998333    -0.76000
O425        O  0.04973024  0.17331231  0.97828160    -0.79300
O426        O  0.09423095  0.08271254  0.12427019    -0.77100
O427        O  0.93958251  0.84305835  0.02496106    -0.75800
O428        O  0.82859721  0.98757268  0.05794305    -0.77300
O429        O  0.92401724  0.13181978  0.10527149    -0.79200
O430        O  0.84519761  0.92150631  0.99914591    -0.76000
O431        O  0.00951425  0.15839030  0.08873919    -0.78700
O432        O  0.90845146  0.02352347  0.85421133    -0.74400
O433        O  0.99845006  0.85969209  0.09110761    -0.74400
O434        O  0.08052746  0.99700016  0.15140487    -0.74100
O435        O  0.99136159  0.15714132  0.91168805    -0.77600
O436        O  0.84528198  0.09450287  0.01703204    -0.77000
O437        O  0.90762277  0.01335146  0.15280853    -0.75300
Eu438      Eu  0.96082792  0.06647580  0.91951745     2.39800
Eu439      Eu  0.02919302  0.95053491  0.08684517     2.39600
Eu440      Eu  0.93645025  0.92526094  0.96926070     2.38400
Eu441      Eu  0.05191824  0.09276963  0.03596682     2.39900
Eu442      Eu  0.91104023  0.04296633  0.06173256     2.39800
O443        O  0.99873059  0.03819266  0.09071586    -0.89700
O444        O  0.90667969  0.01267403  0.97411034    -0.88600
C445        C  0.83826496  0.11253781  0.96994529     1.05400
C446        C  0.93345760  0.98255521  0.18388934     1.04200
C447        C  0.89008770  0.97691251  0.84627713     1.03500
C448        C  0.02360853  0.18732695  0.93662810     1.05600
C449        C  0.09824367  0.04417070  0.15827411     1.04500
C450        C  0.96656981  0.82910865  0.06615000     1.03300
C451        C  0.81448871  0.94668130  0.03080015     1.03400
C452        C  0.96300649  0.16580405  0.10802867     1.06000
H453        H  0.91847094  0.93249335  0.07992867     0.33400
O454        O  0.94078313  0.95476794  0.05744846    -1.01900
H455        H  0.95107334  0.13321413  0.00654768     0.35400
O456        O  0.96399346  0.09734761  0.00636716    -1.04500
C457        C  0.49518533  0.39145207  0.25348598    -0.13300
C458        C  0.45915349  0.38493667  0.29340577    -0.28500
H459        H  0.52879495  0.41803208  0.25914088     0.15700
H460        H  0.42434646  0.35997643  0.28823429     0.16300
C461        C  0.50126866  0.39462151  0.75228482    -0.13300
C462        C  0.46545984  0.42923471  0.73278912    -0.28500
H463        H  0.53578385  0.38506351  0.72812049     0.15700
H464        H  0.43148269  0.44138933  0.75622864     0.16300
C465        C  0.99776596  0.75622250  0.12240504    -0.13300
C466        C  0.96128981  0.77449935  0.08771070    -0.28500
H467        H  0.03213784  0.78096161  0.13077358     0.15700
H468        H  0.92752640  0.75042829  0.07631345     0.16300
C469        C  0.95536002  0.21816594  0.13327746    -0.13300
C470        C  0.99158445  0.25778954  0.12456678    -0.28500
H471        H  0.92109154  0.22444448  0.15875089     0.15700
H472        H  0.02464886  0.25090519  0.09758296     0.16300
C473        C  0.53120890  0.60227908  0.26526477    -0.13300
C474        C  0.49482178  0.63639899  0.24595225    -0.28500
H475        H  0.56515897  0.59043010  0.24163488     0.15700
H476        H  0.46026791  0.64541568  0.27030140     0.16300
C477        C  0.50259227  0.63862248  0.74919526    -0.13300
C478        C  0.53903224  0.64638666  0.70959101    -0.28500
H479        H  0.46942922  0.61171491  0.74271012     0.15700
H480        H  0.57340320  0.67172880  0.71558089     0.16300
C481        C  0.99500993  0.26179827  0.88058121    -0.13300
C482        C  0.03043664  0.24179908  0.91531766    -0.28500
H483        H  0.96041758  0.23795258  0.87075031     0.15700
H484        H  0.06447318  0.26489174  0.92776186     0.16300
C485        C  0.00097734  0.76178893  0.87876926    -0.13300
C486        C  0.03708193  0.80168797  0.87259273    -0.28500
H487        H  0.96717082  0.76724830  0.90520844     0.15700
H488        H  0.07189499  0.79660636  0.84754172     0.16300
C489        C  0.04553444  0.34607281  0.86618178    -0.10200
C490        C  0.07806749  0.37574431  0.88407545    -0.11700
C491        C  0.07026770  0.37379640  0.11579842    -0.10200
C492        C  0.03699362  0.34374512  0.13398054    -0.11700
C493        C  0.04161193  0.67276611  0.13782372    -0.10200
C494        C  0.07405573  0.64389051  0.11833314    -0.11700
C495        C  0.08076057  0.64936380  0.88230179    -0.10200
C496        C  0.04925963  0.67957357  0.86365132    -0.11700
C497        C  0.41961645  0.39685909  0.86715926    -0.10200
C498        C  0.45149737  0.37916414  0.83677596    -0.11700
C499        C  0.42507271  0.62954639  0.86541421    -0.10200
C500        C  0.45773908  0.64892756  0.83530402    -0.11700
C501        C  0.41927984  0.63115101  0.13323259    -0.10200
C502        C  0.45203682  0.65048959  0.16172298    -0.11700
C503        C  0.41351892  0.39525226  0.14166313    -0.10200
C504        C  0.44584670  0.37753878  0.17157023    -0.11700
C505        C  0.53781783  0.38006570  0.16721210    -0.10200
C506        C  0.57049972  0.39852791  0.13692139    -0.11700
C507        C  0.54432968  0.65268000  0.16133169    -0.10200
C508        C  0.57702987  0.63436035  0.13193513    -0.11700
C509        C  0.54995915  0.65246941  0.83226485    -0.10200
C510        C  0.58196685  0.63371950  0.86199222    -0.11700
C511        C  0.57559047  0.39573420  0.86695462    -0.10200
C512        C  0.54322204  0.37818618  0.83696261    -0.11700
C513        C  0.94480037  0.34188044  0.13665029    -0.10200
C514        C  0.91325048  0.37254312  0.11872260    -0.11700
C515        C  0.92017334  0.37669569  0.88313568    -0.10200
C516        C  0.95315465  0.34706421  0.86548640    -0.11700
C517        C  0.95741868  0.67634910  0.86368492    -0.10200
C518        C  0.92463480  0.64560616  0.88116606    -0.11700
C519        C  0.91803243  0.64167326  0.12250417    -0.10200
C520        C  0.94976953  0.67161306  0.14117620    -0.11700
C521        C  0.11544178  0.01079997  0.75085979    -0.13300
C522        C  0.07945704  0.04557764  0.76950943    -0.28500
H523        H  0.12582491  0.97691812  0.77555980     0.15700
H524        H  0.06620384  0.07871734  0.74547133     0.16300
C525        C  0.11849453  0.01752612  0.24952809    -0.13300
C526        C  0.12419230  0.05350827  0.20957968    -0.28500
H527        H  0.09302506  0.98309156  0.24390082     0.15700
H528        H  0.14803666  0.08903423  0.21481784     0.16300
C529        C  0.22120248  0.51241514  0.24762601    -0.10200
C530        C  0.20961224  0.51644999  0.29393881    -0.11700
C531        C  0.29004861  0.55982216  0.37148218    -0.13300
C532        C  0.25070532  0.52345677  0.38040250    -0.28500
H533        H  0.28394508  0.59334915  0.34500185     0.15700
H534        H  0.25742668  0.49148310  0.40875773     0.16300
C535        C  0.79373589  0.51528373  0.29170600    -0.10200
C536        C  0.78063551  0.51349781  0.24564369    -0.11700
C537        C  0.75316404  0.51435440  0.37934413    -0.13300
C538        C  0.73535972  0.54899517  0.41602823    -0.28500
H539        H  0.72797415  0.48083015  0.36933510     0.15700
H540        H  0.76013174  0.58145043  0.42929249     0.16300
C541        C  0.87471573  0.00631150  0.75444653    -0.13300
C542        C  0.86522502  0.96980979  0.79367693    -0.28500
H543        H  0.90281813  0.03830920  0.76155563     0.15700
H544        H  0.83890286  0.93633033  0.78716673     0.16300
C545        C  0.87782821  0.01559154  0.25635837    -0.13300
C546        C  0.91277837  0.97887802  0.23900611    -0.28500
H547        H  0.86881466  0.04904489  0.23053762     0.15700
H548        H  0.92469447  0.94597323  0.26407573     0.16300
C549        C  0.22096562  0.51410017  0.75380008    -0.10200
C550        C  0.20716951  0.51385114  0.70792554    -0.11700
C551        C  0.26380374  0.48675920  0.58218087    -0.13300
C552        C  0.24563521  0.52001823  0.61980935    -0.28500
H553        H  0.23947183  0.45431154  0.56817359     0.15700
H554        H  0.27034311  0.55360043  0.63074973     0.16300
C555        C  0.77933934  0.51100851  0.75534861    -0.10200
C556        C  0.79039267  0.50984167  0.70891086    -0.11700
C557        C  0.74728153  0.51115195  0.62347053    -0.13300
C558        C  0.70794865  0.47439901  0.62937534    -0.28500
H559        H  0.74088041  0.54544243  0.59789676     0.15700
H560        H  0.71399765  0.43895058  0.65323153     0.16300
C561        C  0.99337023  0.30303937  0.20898935    -0.10200
C562        C  0.99583341  0.29343370  0.25570001    -0.11700
C563        C  0.00039914  0.30355526  0.79415760    -0.10200
C564        C  0.00076663  0.29077805  0.74806267    -0.11700
C565        C  0.86634126  0.43916325  0.38454162    -0.10200
C566        C  0.83758727  0.47171833  0.36500625    -0.11700
C567        C  0.85853485  0.42955630  0.61864198    -0.10200
C568        C  0.82931843  0.46221007  0.63649692    -0.11700
C569        C  0.13372497  0.43433008  0.61978883    -0.10200
C570        C  0.16302963  0.46741119  0.63735593    -0.11700
C571        C  0.13656019  0.44312284  0.38914058    -0.10200
C572        C  0.16632414  0.47606196  0.36993237    -0.11700
C573        C  0.13079964  0.05983587  0.66561889    -0.10200
C574        C  0.11364489  0.09181028  0.63475294    -0.11700
C575        C  0.88587788  0.08615885  0.63935035    -0.10200
C576        C  0.86676410  0.05305289  0.66904682    -0.11700
C577        C  0.87914381  0.09562681  0.36627117    -0.10200
C578        C  0.86076816  0.06210608  0.33803070    -0.11700
C579        C  0.11216092  0.10034593  0.35928703    -0.10200
C580        C  0.13086787  0.06801174  0.33028788    -0.11700
C581        C  0.99855969  0.73234001  0.25582537    -0.10200
C582        C  0.99720060  0.71740302  0.21035538    -0.11700
C583        C  0.00013026  0.73400880  0.74594328    -0.10200
C584        C  0.00192376  0.72169101  0.79204139    -0.11700
C585        C  0.13579396  0.59960954  0.37999604    -0.10200
C586        C  0.16652857  0.56786966  0.36257909    -0.11700
C587        C  0.13034747  0.59191786  0.61987743    -0.10200
C588        C  0.16019064  0.55943862  0.63784803    -0.11700
C589        C  0.86325016  0.58746302  0.61696523    -0.10200
C590        C  0.83348087  0.55423317  0.63540883    -0.11700
C591        C  0.83754751  0.56362742  0.36120903    -0.10200
C592        C  0.86718009  0.59632629  0.37880127    -0.11700
C593        C  0.11325060  0.94344640  0.36675481    -0.10200
C594        C  0.13100984  0.97629747  0.33626365    -0.11700
C595        C  0.85976514  0.97019436  0.34270413    -0.10200
C596        C  0.87736996  0.93847244  0.37346778    -0.11700
C597        C  0.85995730  0.96112655  0.67060012    -0.10200
C598        C  0.87800033  0.92909192  0.64071065    -0.11700
C599        C  0.11466802  0.93488321  0.63803725    -0.10200
C600        C  0.13187980  0.96794845  0.66733057    -0.11700
C601        C  0.24462427  0.79513441  0.50185851    -0.10200
C602        C  0.29109595  0.80607988  0.50482344    -0.11700
C603        C  0.37795250  0.76489864  0.50674040    -0.13300
C604        C  0.37194525  0.72555117  0.54350143    -0.28500
H605        H  0.40444057  0.75892004  0.47309434     0.15700
H606        H  0.34712631  0.73116494  0.57832958     0.16300
C607        C  0.29182051  0.22497068  0.49804269    -0.10200
C608        C  0.24571526  0.23807175  0.49715947    -0.11700
C609        C  0.41480099  0.28310297  0.53098004    -0.13300
C610        C  0.37970378  0.26419956  0.49547904    -0.28500
H611        H  0.42697743  0.25939316  0.56474648     0.15700
H612        H  0.37076076  0.28833579  0.46076768     0.16300
C613        C  0.71750977  0.26671670  0.00094507    -0.10200
C614        C  0.70645022  0.22032380  0.99784215    -0.11700
C615        C  0.74682008  0.13313660  0.99640688    -0.13300
C616        C  0.78711805  0.13926038  0.96088078    -0.28500
H617        H  0.75176179  0.10612110  0.02986718     0.15700
H618        H  0.78250985  0.16453452  0.92617884     0.16300
C619        C  0.27392488  0.26470427  0.99901785    -0.10200
C620        C  0.28655546  0.21846166  0.99968816    -0.11700
C621        C  0.24678123  0.13090883  0.00647743    -0.13300
C622        C  0.22941753  0.09343307  0.97262101    -0.28500
H623        H  0.22115336  0.14220396  0.03929737     0.15700
H624        H  0.25444882  0.07944822  0.94064182     0.16300
C625        C  0.70702699  0.81191431  0.50239764    -0.10200
C626        C  0.75322009  0.79912903  0.50283197    -0.11700
C627        C  0.62036762  0.76990115  0.50316668    -0.13300
C628        C  0.58468119  0.75145556  0.46795307    -0.28500
H629        H  0.63015545  0.74522806  0.53724200     0.15700
H630        H  0.57171766  0.77571872  0.43488299     0.16300
C631        C  0.71538613  0.75844285  0.99884386    -0.10200
C632        C  0.70118503  0.80423625  0.99982989    -0.11700
C633        C  0.75945195  0.92588209  0.03551038    -0.13300
C634        C  0.74120661  0.89149062  0.99898270    -0.28500
H635        H  0.73497749  0.93766017  0.06884717     0.15700
H636        H  0.76646685  0.88255847  0.96512595     0.16300
C637        C  0.28865958  0.80440856  0.00448002    -0.10200
C638        C  0.27638943  0.75816252  0.00210437    -0.11700
C639        C  0.20617432  0.88141131  0.04372852    -0.13300
C640        C  0.24594513  0.89014210  0.00764237    -0.28500
H641        H  0.21239560  0.85570528  0.07782703     0.15700
H642        H  0.23924513  0.91749793  0.97483568     0.16300
C643        C  0.25122341  0.01774617  0.28264383    -0.10200
C644        C  0.20439987  0.01991798  0.29260379    -0.11700
C645        C  0.74398965  0.01348256  0.28047021    -0.10200
C646        C  0.78972409  0.01396760  0.29496473    -0.11700
C647        C  0.38292556  0.88076676  0.43000956    -0.10200
C648        C  0.36477970  0.85036139  0.46270395    -0.11700
C649        C  0.63775451  0.85356330  0.45299430    -0.10200
C650        C  0.62065763  0.88255982  0.41951159    -0.11700
C651        C  0.38280404  0.14781009  0.42486827    -0.10200
C652        C  0.36422808  0.17834818  0.45614528    -0.11700
C653        C  0.49564500  0.30584620  0.21039991    -0.10200
C654        C  0.49832202  0.25929738  0.22075496    -0.11700
C655        C  0.49668984  0.72319554  0.20495207    -0.10200
C656        C  0.49560474  0.76897601  0.21877838    -0.11700
C657        C  0.66020120  0.14639535  0.03775197    -0.10200
C658        C  0.62970609  0.12805693  0.07030633    -0.11700
C659        C  0.62476388  0.89266152  0.07764263    -0.10200
C660        C  0.65488668  0.87462116  0.04545492    -0.11700
C661        C  0.32904881  0.87496167  0.05471800    -0.10200
C662        C  0.35836277  0.89301580  0.08728632    -0.11700
C663        C  0.35949776  0.13304621  0.08334144    -0.10200
C664        C  0.33015377  0.14955908  0.04971600    -0.11700
C665        C  0.70493780  0.22587448  0.49779925    -0.10200
C666        C  0.75139978  0.23701089  0.50179739    -0.11700
C667        C  0.62002896  0.15313612  0.41383080    -0.10200
C668        C  0.63634340  0.18435337  0.44557213    -0.11700
C669        C  0.61895112  0.26846586  0.49056690    -0.13300
C670        C  0.62944797  0.30881282  0.45574375    -0.28500
H671        H  0.58969018  0.27465913  0.52180568     0.15700
H672        H  0.65696847  0.30353961  0.42292255     0.16300
C673        C  0.20246109  0.01552605  0.71041264    -0.10200
C674        C  0.24849645  0.01557773  0.72370900    -0.11700
C675        C  0.74287313  0.01688338  0.72012961    -0.10200
C676        C  0.78960207  0.01286167  0.71006938    -0.11700
C677        C  0.37709418  0.15268882  0.58151336    -0.10200
C678        C  0.36052820  0.18198951  0.54786146    -0.11700
C679        C  0.60820941  0.15472683  0.57077731    -0.10200
C680        C  0.62799234  0.18375893  0.53749076    -0.11700
C681        C  0.63217735  0.85494552  0.54469663    -0.10200
C682        C  0.61174005  0.88400331  0.57628895    -0.11700
C683        C  0.37917673  0.87707350  0.58596458    -0.10200
C684        C  0.36162598  0.84687919  0.55421001    -0.11700
C685        C  0.49594072  0.30792133  0.79298981    -0.10200
C686        C  0.49509891  0.26216292  0.77954215    -0.11700
C687        C  0.49772414  0.77060097  0.78029838    -0.10200
C688        C  0.50025858  0.72422044  0.79219432    -0.11700
C689        C  0.33196539  0.14578697  0.95768263    -0.10200
C690        C  0.36182103  0.12777981  0.92527384    -0.11700
C691        C  0.33228030  0.87988552  0.96242774    -0.10200
C692        C  0.36220375  0.89905969  0.92937992    -0.11700
C693        C  0.63137845  0.89596144  0.91942892    -0.10200
C694        C  0.65880494  0.87668029  0.95326861    -0.11700
C695        C  0.63719936  0.13415233  0.91296353    -0.10200
C696        C  0.66648991  0.15107181  0.94603255    -0.11700
loop_ 
_geom_bond_atom_site_label_1 
_geom_bond_atom_site_label_2 
_geom_bond_distance 
_geom_bond_site_symmetry_2 
_ccdc_geom_bond_type 
O1           C12   1.296       .  A
O1          Eu37   2.486       .  S
O2           C13   1.295       .  A
O2          Eu36   2.488       .  S
O3           C14   1.292       .  A
O3           Eu9   2.476       .  S
O4           C15   1.291       .  A
O4           Eu9   2.471       .  S
O5           C15   1.290       .  A
O5          Eu39   2.464       .  S
O6           C14   1.288   1_565  A
O6          Eu38   2.453       .  S
O7           C13   1.286       .  A
O7           Eu9   2.443       .  S
O8           C12   1.282       .  A
O8           Eu9   2.415       .  S
Eu9          O19   2.362       .  S
Eu9          O11   2.357       .  S
Eu9          O10   2.344       .  S
Eu9          O17   2.352       .  S
O10         Eu39   2.354       .  S
O10         Eu36   2.360       .  S
O11         Eu37   2.363       .  S
O11         Eu38   2.345   1_545  S
C12         C695   1.426       .  S
C13         C679   1.440       .  S
C14         C675   1.437       .  S
C15         C686   1.439       .  S
H16          O17   0.967       .  S
O17         Eu38   2.359   1_545  S
O17         Eu36   2.341       .  S
H18          O19   0.964       .  S
O19         Eu37   2.346       .  S
O19         Eu39   2.354       .  S
O20          C43   1.294       .  A
O20         Eu36   2.476   1_565  S
O21          C44   1.297       .  A
O21         Eu37   2.496   1_565  S
O22          C45   1.284       .  A
O22         Eu38   2.432       .  S
O23          C46   1.283       .  A
O23         Eu39   2.424       .  S
O24          C47   1.284       .  A
O24         Eu39   2.430       .  S
O25          C48   1.286       .  A
O25         Eu38   2.437       .  S
O26          C49   1.291       .  A
O26         Eu40   2.471       .  S
O27          C50   1.293   1_565  A
O27         Eu40   2.479       .  S
O28          C49   1.289       .  A
O28         Eu38   2.457       .  S
O29          C50   1.290       .  A
O29         Eu39   2.467       .  S
O30          C45   1.295       .  A
O30         Eu36   2.483   1_565  S
O31          C48   1.294       .  A
O31         Eu37   2.479   1_565  S
O32          C47   1.293       .  A
O32         Eu37   2.472       .  S
O33          C46   1.294       .  A
O33         Eu36   2.475       .  S
O34          C43   1.282       .  A
O34         Eu40   2.415       .  S
O35          C44   1.287       .  A
O35         Eu40   2.444       .  S
Eu36         O54   2.348       .  S
Eu36         O42   2.361   1_545  S
Eu37         O41   2.362       .  S
Eu37         O52   2.335   1_545  S
Eu38         O52   2.352       .  S
Eu38         O42   2.343       .  S
Eu39         O41   2.348       .  S
Eu39         O54   2.354       .  S
Eu40         O41   2.343   1_565  S
Eu40         O52   2.351       .  S
Eu40         O54   2.358   1_565  S
Eu40         O42   2.354       .  S
C43         C683   1.422       .  S
C44         C692   1.445       .  S
C45         C682   1.434       .  S
C46         C677   1.425       .  S
C47         C690   1.428       .  S
C48         C693   1.434       .  S
C49         C687   1.438       .  S
C50         C674   1.444       .  S
H51          O52   0.967       .  S
H53          O54   0.965       .  S
C55         C665   1.471       .  S
C55         C668   1.464       .  S
C55         C680   1.475       .  S
C55         C669   1.515       .  S
O56          C67   1.297       .  A
O56         Eu92   2.491       .  S
O57          C68   1.294       .  A
O57         Eu91   2.479       .  S
O58          C69   1.290       .  A
O58         Eu64   2.467       .  S
O59          C70   1.289       .  A
O59         Eu64   2.458       .  S
O60          C70   1.286       .  A
O60         Eu94   2.443       .  S
O61          C69   1.291   1_565  A
O61         Eu93   2.469       .  S
O62          C68   1.286       .  A
O62         Eu64   2.438       .  S
O63          C67   1.284       .  A
O63         Eu64   2.427       .  S
Eu64         O74   2.354       .  S
Eu64         O66   2.344       .  S
Eu64         O65   2.349       .  S
Eu64         O72   2.346       .  S
O65         Eu94   2.349       .  S
O65         Eu91   2.349       .  S
O66         Eu92   2.348       .  S
O66         Eu93   2.342   1_545  S
C67         C667   1.432       .  S
C68         C658   1.432       .  S
C69         C645   1.446       .  S
C70         C654   1.431       .  S
H71          O72   0.965       .  S
O72         Eu93   2.347   1_545  S
O72         Eu91   2.372       .  S
H73          O74   0.966       .  S
O74         Eu92   2.365       .  S
O74         Eu94   2.342       .  S
O75          C98   1.295       .  A
O75         Eu91   2.480   1_565  S
O76          C99   1.296       .  A
O76         Eu92   2.486   1_565  S
O77         C100   1.283       .  A
O77         Eu93   2.420       .  S
O78         C101   1.284       .  A
O78         Eu94   2.428       .  S
O79         C102   1.284       .  A
O79         Eu94   2.431       .  S
O80         C103   1.282       .  A
O80         Eu93   2.415       .  S
O81         C104   1.292       .  A
O81         Eu95   2.476       .  S
O82         C105   1.291   1_565  A
O82         Eu95   2.471       .  S
O83         C104   1.289       .  A
O83         Eu93   2.460       .  S
O84         C105   1.286       .  A
O84         Eu94   2.443       .  S
O85         C100   1.295       .  A
O85         Eu91   2.484   1_565  S
O86         C103   1.293       .  A
O86         Eu92   2.474   1_565  S
O87         C102   1.295       .  A
O87         Eu92   2.483       .  S
O88         C101   1.295       .  A
O88         Eu91   2.489       .  S
O89          C98   1.284       .  A
O89         Eu95   2.427       .  S
O90          C99   1.285       .  A
O90         Eu95   2.428       .  S
Eu91        O109   2.366       .  S
Eu91         O97   2.344   1_545  S
Eu92         O96   2.349       .  S
Eu92        O107   2.373   1_545  S
Eu93        O107   2.352       .  S
Eu93         O97   2.343       .  S
Eu94         O96   2.346       .  S
Eu94        O109   2.346       .  S
Eu95         O96   2.351   1_565  S
Eu95        O107   2.352       .  S
Eu95        O109   2.349   1_565  S
Eu95         O97   2.342       .  S
C98         C662   1.429       .  S
C99         C647   1.431       .  S
C100        C659   1.428       .  S
C101        C663   1.433       .  S
C102        C651   1.432       .  S
C103        C650   1.420       .  S
C104        C656   1.446       .  S
C105        C643   1.435       .  S
H106        O107   0.965       .  S
H108        O109   0.967       .  S
C110        C637   1.472       .  S
C110        C661   1.462       .  S
C110        C691   1.481   1_554  S
C110        C640   1.516       .  S
C111        C632   1.481   1_554  S
C111        C660   1.466       .  S
C111        C694   1.466   1_554  S
C111        C634   1.513   1_554  S
C112        C625   1.476       .  S
C112        C649   1.457       .  S
C112        C681   1.466       .  S
C112        C627   1.513       .  S
C113        C620   1.480   1_554  S
C113        C664   1.465       .  S
C113        C689   1.465   1_554  S
C113        C621   1.514       .  S
C114        C614   1.468       .  S
C114        C657   1.468   1_556  S
C114        C696   1.459       .  S
C114        C615   1.510       .  S
C115        C607   1.477       .  S
C115        C652   1.465       .  S
C115        C678   1.461       .  S
C115        C610   1.514       .  S
C116        C602   1.466       .  S
C116        C648   1.467       .  S
C116        C684   1.455       .  S
C116        C603   1.510       .  S
O117        C128   1.290       .  A
O117       Eu153   2.465       .  S
O118        C129   1.292   1_455  A
O118       Eu152   2.475       .  S
O119        C130   1.283       .  A
O119       Eu125   2.420       .  S
O120        C131   1.283       .  A
O120       Eu125   2.419       .  S
O121        C131   1.295       .  A
O121       Eu155   2.480       .  S
O122        C130   1.294       .  A
O122       Eu154   2.474       .  S
O123        C129   1.290       .  A
O123       Eu125   2.468       .  S
O124        C128   1.290       .  A
O124       Eu125   2.464       .  S
Eu125       O135   2.351       .  S
Eu125       O127   2.341       .  S
Eu125       O126   2.341       .  S
Eu125       O133   2.346       .  S
O126       Eu155   2.347       .  S
O126       Eu152   2.342   1_655  S
O127       Eu153   2.343       .  S
O127       Eu154   2.344       .  S
C128        C626   1.443       .  S
C129        C581   1.449       .  S
C130        C596   1.423       .  S
C131        C592   1.425       .  S
H132        O133   0.966       .  S
O133       Eu154   2.374       .  S
O133       Eu152   2.351   1_655  S
H134        O135   0.966       .  S
O135       Eu153   2.348       .  S
O135       Eu155   2.371       .  S
O136        C159   1.290       .  A
O136       Eu152   2.465       .  S
O137        C160   1.289       .  A
O137       Eu153   2.459       .  S
O138        C161   1.295       .  A
O138       Eu154   2.483   1_455  S
O139        C162   1.296       .  A
O139       Eu155   2.487   1_455  S
O140        C163   1.295       .  A
O140       Eu155   2.487       .  S
O141        C164   1.296       .  A
O141       Eu154   2.490       .  S
O142        C165   1.285       .  A
O142       Eu156   2.434       .  S
O143        C166   1.285       .  A
O143       Eu156   2.434       .  S
O144        C165   1.294       .  A
O144       Eu154   2.479   1_455  S
O145        C166   1.295       .  A
O145       Eu155   2.484   1_455  S
O146        C161   1.286       .  A
O146       Eu152   2.436       .  S
O147        C164   1.283       .  A
O147       Eu153   2.419       .  S
O148        C163   1.285       .  A
O148       Eu153   2.434       .  S
O149        C162   1.284       .  A
O149       Eu152   2.427       .  S
O150        C159   1.286       .  A
O150       Eu156   2.441       .  S
O151        C160   1.285   1_455  A
O151       Eu156   2.437       .  S
Eu152       O170   2.354       .  S
Eu152       O158   2.352       .  S
Eu153       O157   2.347       .  S
Eu153       O168   2.348       .  S
Eu154       O168   2.361       .  S
Eu154       O158   2.352   1_655  S
Eu155       O157   2.348       .  S
Eu155       O170   2.370   1_655  S
Eu156       O157   2.349   1_455  S
Eu156       O168   2.341   1_455  S
Eu156       O170   2.344       .  S
Eu156       O158   2.347       .  S
C159        C601   1.432       .  S
C160        C583   1.429   1_655  S
C161        C593   1.432       .  S
C162        C585   1.430       .  S
C163        C589   1.435       .  S
C164        C598   1.429       .  S
C165        C599   1.431       .  S
C166        C587   1.433       .  S
H167        O168   0.966       .  S
H169        O170   0.967       .  S
O171        C182   1.293       .  A
O171       Eu207   2.479       .  S
O172        C183   1.290   1_455  A
O172       Eu206   2.463       .  S
O173        C184   1.285       .  A
O173       Eu179   2.434       .  S
O174        C185   1.285       .  A
O174       Eu179   2.437       .  S
O175        C185   1.295       .  A
O175       Eu209   2.484       .  S
O176        C184   1.294       .  A
O176       Eu208   2.479       .  S
O177        C183   1.287       .  A
O177       Eu179   2.448       .  S
O178        C182   1.287       .  A
O178       Eu179   2.449       .  S
Eu179       O189   2.358       .  S
Eu179       O181   2.344       .  S
Eu179       O180   2.341       .  S
Eu179       O187   2.358       .  S
O180       Eu209   2.359       .  S
O180       Eu206   2.351   1_655  S
O181       Eu207   2.354       .  S
O181       Eu208   2.362       .  S
C182        C666   1.437       .  S
C183        C562   1.431       .  S
C184        C565   1.433       .  S
C185        C577   1.436       .  S
H186        O187   0.965       .  S
O187       Eu208   2.343       .  S
O187       Eu206   2.352   1_655  S
H188        O189   0.966       .  S
O189       Eu207   2.354       .  S
O189       Eu209   2.341       .  S
O190        C213   1.291       .  A
O190       Eu206   2.469       .  S
O191        C214   1.293   1_655  A
O191       Eu207   2.479       .  S
O192        C215   1.295       .  A
O192       Eu208   2.485   1_455  S
O193        C216   1.294       .  A
O193       Eu209   2.474   1_455  S
O194        C217   1.295       .  A
O194       Eu209   2.487       .  S
O195        C218   1.294       .  A
O195       Eu208   2.476       .  S
O196        C219   1.283       .  A
O196       Eu210   2.423       .  S
O197        C220   1.283       .  A
O197       Eu210   2.420       .  S
O198        C219   1.294       .  A
O198       Eu208   2.480   1_455  S
O199        C220   1.294       .  A
O199       Eu209   2.477   1_455  S
O200        C215   1.286       .  A
O200       Eu206   2.440       .  S
O201        C218   1.283       .  A
O201       Eu207   2.419       .  S
O202        C217   1.286       .  A
O202       Eu207   2.442       .  S
O203        C216   1.283       .  A
O203       Eu206   2.421       .  S
O204        C213   1.291       .  A
O204       Eu210   2.473       .  S
O205        C214   1.291       .  A
O205       Eu210   2.470       .  S
Eu206       O224   2.358       .  S
Eu206       O212   2.344       .  S
Eu207       O211   2.345       .  S
Eu207       O222   2.359       .  S
Eu208       O222   2.343       .  S
Eu208       O212   2.359   1_655  S
Eu209       O211   2.358       .  S
Eu209       O224   2.350   1_655  S
Eu210       O211   2.351   1_455  S
Eu210       O222   2.355   1_455  S
Eu210       O224   2.354       .  S
Eu210       O212   2.346       .  S
C213        C608   1.443       .  S
C214        C564   1.445       .  S
C215        C571   1.439       .  S
C216        C579   1.424       .  S
C217        C575   1.440       .  S
C218        C567   1.424       .  S
C219        C569   1.428       .  S
C220        C574   1.426       .  S
H221        O222   0.965       .  S
H223        O224   0.966       .  S
C225        C556   1.465       .  S
C225        C568   1.456       .  S
C225        C590   1.471       .  S
C225        C557   1.509       .  S
C226        C550   1.481       .  S
C226        C570   1.465       .  S
C226        C588   1.465       .  S
C226        C552   1.515       .  S
C227        C578   1.467       .  S
C227        C595   1.460   1_545  S
C227        C646   1.480       .  S
C227        C545   1.514       .  S
C228        C576   1.476       .  S
C228        C597   1.461   1_545  S
C228        C676   1.471       .  S
C228        C541   1.515       .  S
C229        C535   1.482       .  S
C229        C566   1.465       .  S
C229        C591   1.462       .  S
C229        C537   1.516       .  S
C230        C530   1.473       .  S
C230        C572   1.474       .  S
C230        C586   1.462       .  S
C230        C532   1.514       .  S
C231        C580   1.457       .  S
C231        C594   1.468   1_545  S
C231        C644   1.468       .  S
C231        C525   1.508       .  S
C232        C573   1.463       .  S
C232        C600   1.463   1_545  S
C232        C673   1.476       .  S
C232        C521   1.511       .  S
O233        C244   1.292       .  A
O233       Eu269   2.479       .  S
O234        C245   1.292       .  A
O234       Eu268   2.476       .  S
O235        C246   1.283       .  A
O235       Eu241   2.421       .  S
O236        C247   1.281       .  A
O236       Eu241   2.406       .  S
O237        C247   1.296       .  A
O237       Eu271   2.486       .  S
O238        C246   1.296       .  A
O238       Eu270   2.487   1_554  S
O239        C245   1.290       .  A
O239       Eu241   2.465       .  S
O240        C244   1.289   1_554  A
O240       Eu241   2.464       .  S
Eu241       O251   2.352   1_554  S
Eu241       O243   2.342   1_554  S
Eu241       O242   2.344       .  S
Eu241       O249   2.345       .  S
O242       Eu271   2.348       .  S
O242       Eu268   2.344       .  S
O243       Eu269   2.345       .  S
O243       Eu270   2.347       .  S
C244        C631   1.449       .  S
C245        C536   1.449       .  S
C246        C508   1.429       .  S
C247        C519   1.423       .  S
H248        O249   0.966       .  S
O249       Eu270   2.370   1_554  S
O249       Eu268   2.349       .  S
H250        O251   0.967       .  S
O251       Eu269   2.349       .  S
O251       Eu271   2.375   1_556  S
O252        C275   1.290       .  A
O252       Eu268   2.468       .  S
O253        C276   1.289       .  A
O253       Eu269   2.460       .  S
O254        C277   1.296       .  A
O254       Eu270   2.486   1_554  S
O255        C278   1.296       .  A
O255       Eu271   2.489       .  S
O256        C279   1.296       .  A
O256       Eu271   2.490   1_556  S
O257        C280   1.297       .  A
O257       Eu270   2.493       .  S
O258        C281   1.285       .  A
O258       Eu272   2.432       .  S
O259        C282   1.287       .  A
O259       Eu272   2.446       .  S
O260        C281   1.295       .  A
O260       Eu270   2.484       .  S
O261        C282   1.296       .  A
O261       Eu271   2.489   1_556  S
O262        C277   1.285       .  A
O262       Eu268   2.432       .  S
O263        C280   1.283       .  A
O263       Eu269   2.422       .  S
O264        C279   1.284       .  A
O264       Eu269   2.429       .  S
O265        C278   1.283       .  A
O265       Eu268   2.420       .  S
O266        C275   1.286   1_556  A
O266       Eu272   2.445       .  S
O267        C276   1.286       .  A
O267       Eu272   2.443       .  S
Eu268       O286   2.353       .  S
Eu268       O274   2.350       .  S
Eu269       O273   2.350       .  S
Eu269       O284   2.351       .  S
Eu270       O284   2.368       .  S
Eu270       O274   2.355   1_556  S
Eu271       O273   2.347   1_554  S
Eu271       O286   2.367       .  S
Eu272       O273   2.346       .  S
Eu272       O284   2.348       .  S
Eu272       O286   2.340   1_556  S
Eu272       O274   2.351   1_556  S
C275        C613   1.434       .  S
C276        C555   1.431       .  S
C277        C506   1.432       .  S
C278        C514   1.428       .  S
C279        C518   1.432       .  S
C280        C510   1.431       .  S
C281        C511   1.432       .  S
C282        C515   1.440       .  S
H283        O284   0.966       .  S
H285        O286   0.967       .  S
O287        C298   1.292   1_556  A
O287       Eu323   2.473       .  S
O288        C299   1.293       .  A
O288       Eu322   2.482       .  S
O289        C300   1.285       .  A
O289       Eu295   2.437       .  S
O290        C301   1.285       .  A
O290       Eu295   2.439       .  S
O291        C301   1.293       .  A
O291       Eu325   2.475       .  S
O292        C300   1.294       .  A
O292       Eu324   2.479       .  S
O293        C299   1.288       .  A
O293       Eu295   2.450       .  S
O294        C298   1.289       .  A
O294       Eu295   2.456       .  S
Eu295       O305   2.352       .  S
Eu295       O297   2.345   1_554  S
Eu295       O296   2.346       .  S
Eu295       O303   2.358       .  S
O296       Eu325   2.361       .  S
O296       Eu322   2.355       .  S
O297       Eu323   2.355       .  S
O297       Eu324   2.365   1_556  S
C298        C638   1.438       .  S
C299        C529   1.439       .  S
C300        C494   1.434       .  S
C301        C501   1.433       .  S
H302        O303   0.967       .  S
O303       Eu324   2.345       .  S
O303       Eu322   2.355       .  S
H304        O305   0.964       .  S
O305       Eu323   2.352   1_554  S
O305       Eu325   2.342       .  S
O306        C329   1.294   1_554  A
O306       Eu322   2.485       .  S
O307        C330   1.292       .  A
O307       Eu323   2.477       .  S
O308        C331   1.296       .  A
O308       Eu324   2.489       .  S
O309        C332   1.296       .  A
O309       Eu325   2.488       .  S
O310        C333   1.297       .  A
O310       Eu325   2.494   1_556  S
O311        C334   1.296       .  A
O311       Eu324   2.483   1_556  S
O312        C335   1.282       .  A
O312       Eu326   2.416       .  S
O313        C336   1.281       .  A
O313       Eu326   2.412       .  S
O314        C335   1.294       .  A
O314       Eu324   2.481   1_556  S
O315        C336   1.293       .  A
O315       Eu325   2.471   1_556  S
O316        C331   1.286       .  A
O316       Eu322   2.440       .  S
O317        C334   1.283       .  A
O317       Eu323   2.420       .  S
O318        C333   1.286       .  A
O318       Eu323   2.440       .  S
O319        C332   1.283       .  A
O319       Eu322   2.418       .  S
O320        C329   1.291       .  A
O320       Eu326   2.467       .  S
O321        C330   1.291       .  A
O321       Eu326   2.474       .  S
Eu322       O340   2.360       .  S
Eu322       O328   2.347       .  S
Eu323       O327   2.347       .  S
Eu323       O338   2.359       .  S
Eu324       O338   2.347   1_554  S
Eu324       O328   2.359       .  S
Eu325       O327   2.363   1_554  S
Eu325       O340   2.348       .  S
Eu326       O327   2.349       .  S
Eu326       O338   2.350       .  S
Eu326       O340   2.357   1_556  S
Eu326       O328   2.351   1_556  S
C329        C619   1.447       .  S
C330        C549   1.447       .  S
C331        C491   1.439       .  S
C332        C503   1.428       .  S
C333        C499   1.442       .  S
C334        C495   1.427       .  S
C335        C490   1.426       .  S
C336        C497   1.420       .  S
H337        O338   0.965       .  S
H339        O340   0.963       .  S
C341        C496   1.458       .  S
C341        C517   1.468   1_455  S
C341        C584   1.464       .  S
C341        C485   1.512       .  S
C342        C489   1.463   1_655  S
C342        C516   1.471       .  S
C342        C563   1.478   1_655  S
C342        C481   1.515       .  S
C343        C500   1.478       .  S
C343        C509   1.463       .  S
C343        C688   1.472       .  S
C343        C477   1.516       .  S
C344        C502   1.465       .  S
C344        C507   1.465       .  S
C344        C655   1.479       .  S
C344        C474   1.513       .  S
C345        C492   1.475   1_655  S
C345        C513   1.460       .  S
C345        C561   1.466       .  S
C345        C470   1.517       .  S
C346        C493   1.466   1_655  S
C346        C520   1.460       .  S
C346        C582   1.482       .  S
C346        C465   1.513       .  S
C347        C498   1.458       .  S
C347        C512   1.464       .  S
C347        C685   1.472       .  S
C347        C461   1.513       .  S
C348        C504   1.460       .  S
C348        C505   1.468       .  S
C348        C653   1.465       .  S
C348        C457   1.512       .  S
O349        C360   1.300       .  A
O349       Eu385   2.517       .  S
O350        C361   1.295       .  A
O350       Eu384   2.492       .  S
O351        C362   1.299       .  A
O351       Eu357   2.512       .  S
O352        C363   1.296       .  A
O352       Eu357   2.493       .  S
O353        C363   1.286       .  A
O353       Eu387   2.417       .  S
O354        C362   1.282       .  A
O354       Eu386   2.392       .  S
O355        C361   1.286       .  A
O355       Eu357   2.419       .  S
O356        C360   1.283       .  A
O356       Eu357   2.404       .  S
Eu357       O367   2.350       .  S
Eu357       O359   2.344       .  S
Eu357       O358   2.359       .  S
Eu357       O365   2.343       .  S
O358       Eu387   2.357       .  S
O358       Eu384   2.357       .  S
O359       Eu385   2.346       .  S
O359       Eu386   2.354       .  S
C360        C670   1.487       .  S
C361        C462   1.479       .  S
C362        C558   1.481       .  S
C363        C609   1.478       .  S
H364        O365   0.966       .  S
O365       Eu386   2.346       .  S
O365       Eu384   2.355       .  S
H366        O367   0.965       .  S
O367       Eu385   2.341       .  S
O367       Eu387   2.339       .  S
O368        C391   1.298       .  A
O368       Eu384   2.510       .  S
O369        C392   1.296       .  A
O369       Eu385   2.494       .  S
O370        C393   1.302       .  A
O370       Eu386   2.532       .  S
O371        C394   1.296       .  A
O371       Eu387   2.496       .  S
O372        C395   1.298       .  A
O372       Eu387   2.510       .  S
O373        C396   1.298       .  A
O373       Eu386   2.507       .  S
O374        C397   1.296       .  A
O374       Eu388   2.496       .  S
O375        C398   1.301       .  A
O375       Eu388   2.524       .  S
O376        C397   1.285       .  A
O376       Eu386   2.412       .  S
O377        C398   1.282       .  A
O377       Eu387   2.395       .  S
O378        C393   1.282       .  A
O378       Eu384   2.397       .  S
O379        C396   1.285       .  A
O379       Eu385   2.411       .  S
O380        C395   1.283       .  A
O380       Eu385   2.401       .  S
O381        C394   1.286       .  A
O381       Eu384   2.419       .  S
O382        C391   1.282       .  A
O382       Eu388   2.394       .  S
O383        C392   1.285       .  A
O383       Eu388   2.413       .  S
Eu384       O402   2.339       .  S
Eu384       O390   2.344       .  S
Eu385       O389   2.355       .  S
Eu385       O400   2.358       .  S
Eu386       O400   2.361       .  S
Eu386       O390   2.341       .  S
Eu387       O389   2.348       .  S
Eu387       O402   2.352       .  S
Eu388       O389   2.346       .  S
Eu388       O400   2.358       .  S
Eu388       O402   2.341       .  S
Eu388       O390   2.354       .  S
C391        C604   1.482       .  S
C392        C473   1.479       .  S
C393        C478   1.488       .  S
C394        C551   1.481       .  S
C395        C458   1.484       .  S
C396        C538   1.484       .  S
C397        C628   1.479       .  S
C398        C531   1.486       .  S
H399        O400   0.966       .  S
H401        O402   0.965       .  S
O403        C414   1.302       .  A
O403       Eu439   2.531       .  S
O404        C415   1.294       .  A
O404       Eu438   2.482   1_455  S
O405        C416   1.299       .  A
O405       Eu411   2.511       .  S
O406        C417   1.297       .  A
O406       Eu411   2.497   1_545  S
O407        C417   1.284   1_554  A
O407       Eu441   2.407       .  S
O408        C416   1.283   1_655  A
O408       Eu440   2.402       .  S
O409        C415   1.287       .  A
O409       Eu411   2.423   1_545  S
O410        C414   1.282   1_556  A
O410       Eu411   2.399       .  S
Eu411       O421   2.352   1_566  S
Eu411       O413   2.349       .  S
Eu411       O412   2.353   1_565  S
Eu411       O419   2.342   1_455  S
O412       Eu441   2.349   1_556  S
O412       Eu438   2.351   1_455  S
O413       Eu439   2.348   1_556  S
O413       Eu440   2.358   1_455  S
C414        C639   1.487       .  S
C415        C522   1.479       .  S
C416        C486   1.483       .  S
C417        C622   1.479       .  S
H418        O419   0.967       .  S
O419       Eu440   2.345       .  S
O419       Eu438   2.355   1_565  S
H420        O421   0.966       .  S
O421       Eu439   2.340   1_545  S
O421       Eu441   2.340       .  S
O422        C445   1.297       .  A
O422       Eu438   2.500       .  S
O423        C446   1.298       .  A
O423       Eu439   2.503   1_655  S
O424        C447   1.302       .  A
O424       Eu440   2.532       .  S
O425        C448   1.295       .  A
O425       Eu441   2.489   1_556  S
O426        C449   1.296       .  A
O426       Eu441   2.495       .  S
O427        C450   1.296       .  A
O427       Eu440   2.496   1_554  S
O428        C451   1.297       .  A
O428       Eu442   2.499   1_565  S
O429        C452   1.302       .  A
O429       Eu442   2.533       .  S
O430        C451   1.286   1_556  A
O430       Eu440   2.414       .  S
O431        C452   1.281   1_455  A
O431       Eu441   2.394       .  S
O432        C447   1.281   1_545  A
O432       Eu438   2.390       .  S
O433        C450   1.286       .  A
O433       Eu439   2.417   1_655  S
O434        C449   1.284   1_565  A
O434       Eu439   2.405       .  S
O435        C448   1.285   1_655  A
O435       Eu438   2.415       .  S
O436        C445   1.283   1_554  A
O436       Eu442   2.400       .  S
O437        C446   1.285   1_545  A
O437       Eu442   2.412       .  S
Eu438       O456   2.341   1_556  S
Eu438       O444   2.344       .  S
Eu439       O443   2.354   1_465  S
Eu439       O454   2.360   1_455  S
Eu440       O454   2.363   1_556  S
Eu440       O444   2.343   1_565  S
Eu441       O443   2.344   1_455  S
Eu441       O456   2.350   1_455  S
Eu442       O443   2.340       .  S
Eu442       O454   2.361   1_545  S
Eu442       O456   2.346       .  S
Eu442       O444   2.356   1_554  S
C445        C616   1.479       .  S
C446        C546   1.484       .  S
C447        C542   1.488       .  S
C448        C482   1.479       .  S
C449        C526   1.479       .  S
C450        C466   1.481       .  S
C451        C633   1.482       .  S
C452        C469   1.490       .  S
H453        O454   0.967       .  S
H455        O456   0.966       .  S
C457        C458   1.358       .  D
C457        H459   1.088       .  S
C458        H460   1.086       .  S
C461        C462   1.355       .  D
C461        H463   1.088       .  S
C462        H464   1.085       .  S
C465        C466   1.357       .  D
C465        H467   1.088   1_655  S
C466        H468   1.085       .  S
C469        C470   1.363       .  D
C469        H471   1.086       .  S
C470        H472   1.088   1_655  S
C473        C474   1.355       .  D
C473        H475   1.085       .  S
C474        H476   1.089       .  S
C477        C478   1.362       .  D
C477        H479   1.088       .  S
C478        H480   1.086       .  S
C481        C482   1.355   1_655  D
C481        H483   1.088       .  S
C482        H484   1.085       .  S
C485        C486   1.359       .  D
C485        H487   1.088   1_455  S
C486        H488   1.086       .  S
C489        C490   1.202       .  T
C491        C492   1.209       .  T
C493        C494   1.206       .  T
C495        C496   1.202       .  T
C497        C498   1.199       .  T
C499        C500   1.211       .  T
C501        C502   1.206       .  T
C503        C504   1.203       .  T
C505        C506   1.205       .  T
C507        C508   1.204       .  T
C509        C510   1.204       .  T
C511        C512   1.205       .  T
C513        C514   1.203       .  T
C515        C516   1.209       .  T
C517        C518   1.206       .  T
C519        C520   1.201       .  T
C521        C522   1.354       .  D
C521        H523   1.088   1_545  S
C522        H524   1.085       .  S
C525        C526   1.356       .  D
C525        H527   1.089   1_545  S
C526        H528   1.086       .  S
C529        C530   1.209       .  T
C531        C532   1.361       .  D
C531        H533   1.086       .  S
C532        H534   1.089       .  S
C535        C536   1.215       .  T
C537        C538   1.359       .  D
C537        H539   1.088       .  S
C538        H540   1.085       .  S
C541        C542   1.363   1_545  D
C541        H543   1.088       .  S
C542        H544   1.086       .  S
C545        C546   1.359   1_545  D
C545        H547   1.088       .  S
C546        H548   1.085       .  S
C549        C550   1.214       .  T
C551        C552   1.356       .  D
C551        H553   1.085       .  S
C552        H554   1.089       .  S
C555        C556   1.204       .  T
C557        C558   1.358       .  D
C557        H559   1.088       .  S
C558        H560   1.086       .  S
C561        C562   1.204       .  T
C563        C564   1.213       .  T
C565        C566   1.206       .  T
C567        C568   1.200       .  T
C569        C570   1.203       .  T
C571        C572   1.209       .  T
C573        C574   1.202       .  T
C575        C576   1.210       .  T
C577        C578   1.207       .  T
C579        C580   1.201       .  T
C581        C582   1.215       .  T
C583        C584   1.203       .  T
C585        C586   1.204       .  T
C587        C588   1.206       .  T
C589        C590   1.207       .  T
C591        C592   1.202       .  T
C593        C594   1.205       .  T
C595        C596   1.201       .  T
C597        C598   1.203       .  T
C599        C600   1.205       .  T
C601        C602   1.205       .  T
C603        C604   1.358       .  D
C603        H605   1.088       .  S
C604        H606   1.086       .  S
C607        C608   1.212       .  T
C609        C610   1.355       .  D
C609        H611   1.085       .  S
C610        H612   1.089       .  S
C613        C614   1.206   1_554  T
C615        C616   1.355       .  D
C615        H617   1.089   1_556  S
C616        H618   1.086       .  S
C619        C620   1.214       .  T
C621        C622   1.357   1_554  D
C621        H623   1.089       .  S
C622        H624   1.085       .  S
C625        C626   1.211       .  T
C627        C628   1.356       .  D
C627        H629   1.088       .  S
C628        H630   1.085       .  S
C631        C632   1.215       .  T
C633        C634   1.357   1_554  D
C633        H635   1.085       .  S
C634        H636   1.088       .  S
C637        C638   1.209       .  T
C639        C640   1.363       .  D
C639        H641   1.086       .  S
C640        H642   1.088   1_554  S
C643        C644   1.206       .  T
C645        C646   1.214       .  T
C647        C648   1.205       .  T
C649        C650   1.198       .  T
C651        C652   1.206       .  T
C653        C654   1.204       .  T
C655        C656   1.213       .  T
C657        C658   1.205       .  T
C659        C660   1.204       .  T
C661        C662   1.204       .  T
C663        C664   1.206       .  T
C665        C666   1.208       .  T
C667        C668   1.205       .  T
C669        C670   1.360       .  D
C669        H671   1.088       .  S
C670        H672   1.086       .  S
C673        C674   1.212       .  T
C675        C676   1.208       .  T
C677        C678   1.201       .  T
C679        C680   1.210       .  T
C681        C682   1.206       .  T
C683        C684   1.200       .  T
C685        C686   1.209       .  T
C687        C688   1.209       .  T
C689        C690   1.203       .  T
C691        C692   1.213       .  T
C693        C694   1.206       .  T
C695        C696   1.201       .  T
