geometry optimzed in LAMMPS
_audit_creation_date              2020-11-30 
_audit_creation_method            'lammps2cif' 
_symmetry_space_group_name_H-M    'P1' 
_symmetry_Int_Tables_number       1 
_symmetry_cell_setting            triclinic 
loop_ 
_symmetry_equiv_pos_as_xyz 
  x,y,z 
_cell_length_a                    22.56215555 
_cell_length_b                    32.94015496899607 
_cell_length_c                    30.34528102940643 
_cell_angle_alpha                 90.0007085924388 
_cell_angle_beta                  91.25704388073031 
_cell_angle_gamma                 89.99805416168635 
loop_ 
_atom_site_label 
_atom_site_type_symbol 
_atom_site_fract_x 
_atom_site_fract_y 
_atom_site_fract_z 
_atom_site_charge 
O1          O  0.38318702  0.46273388  0.05219504    -0.82000
O2          O  0.10518861  0.04332614  0.04279262    -0.82000
O3          O  0.02202797  0.43199982  0.05343889    -0.82000
O4          O  0.42634837  0.09000736  0.01562914    -0.81900
O5          O  0.10520162  0.46097548  0.04278248    -0.82100
O6          O  0.38317312  0.04156459  0.05219702    -0.82000
O7          O  0.02202067  0.07232490  0.05342855    -0.82000
O8          O  0.42637847  0.41429252  0.01563104    -0.83000
C9          C  0.39702774  0.42610807  0.04858183     1.07700
C10         C  0.07528642  0.06873948  0.06378410     1.07600
C11         C  0.07529719  0.43557273  0.06378434     1.07700
C12         C  0.39700818  0.07819046  0.04858391     1.07600
O13         O  0.37160310  0.04505032  0.45839964    -0.82000
O14         O  0.07564165  0.45833644  0.44876653    -0.82000
O15         O  0.46079970  0.45756964  0.43422672    -0.82000
O16         O  0.03288102  0.10340119  0.47035409    -0.82000
O17         O  0.07563962  0.04597967  0.44877201    -0.82000
O18         O  0.37162166  0.45925241  0.45839907    -0.82000
O19         O  0.46077897  0.04672701  0.43422553    -0.81900
O20         O  0.03292390  0.40091149  0.47037217    -0.82000
Co21       Co  0.38462936  0.50215048  0.00509508     1.51500
Co22       Co  0.07641303  0.00215480  0.49777795     1.51700
Co23       Co  0.49508435  0.44739193  0.99395116     1.51600
Co24       Co  0.49506736  0.05691832  0.49394498     1.51500
O25         O  0.47857262  0.50215519  0.01292732    -1.43900
C26         C  0.40770089  0.05779763  0.43030759     1.07600
C27         C  0.06867040  0.41936970  0.44543421     1.07700
C28         C  0.40772090  0.44650315  0.43030836     1.07700
C29         C  0.06864479  0.08494395  0.44542664     1.07600
O30         O  0.38269090  0.29505549  0.29160139    -0.82000
O31         O  0.17867287  0.20832841  0.30122829    -0.82000
O32         O  0.22138865  0.35339665  0.27962848    -0.82000
O33         O  0.29353359  0.20758094  0.31577503    -0.81900
O34         O  0.17867087  0.29597171  0.30123400    -0.82100
O35         O  0.38270930  0.20925763  0.29160058    -0.82000
O36         O  0.22143150  0.15090691  0.27964623    -0.82000
O37         O  0.29351289  0.29673832  0.31577370    -0.82000
C38         C  0.34659181  0.30780460  0.31969214     1.07700
C39         C  0.18566778  0.16936411  0.30457364     1.07600
C40         C  0.18564223  0.33493842  0.30456647     1.07700
C41         C  0.34661169  0.19651020  0.31969272     1.07600
O42         O  0.37113919  0.21274330  0.19780321    -0.82000
O43         O  0.14911121  0.29333272  0.20721817    -0.82000
O44         O  0.32793439  0.34001529  0.23436945    -0.82000
O45         O  0.23229161  0.18198338  0.19657196    -0.82000
O46         O  0.14912369  0.21098199  0.20720788    -0.82000
O47         O  0.37112545  0.29157389  0.19780534    -0.82000
O48         O  0.32796365  0.16430072  0.23437139    -0.81900
O49         O  0.23228482  0.32230820  0.19656175    -0.82000
Co50       Co  0.36968312  0.25215740  0.24490528     1.51500
Co51       Co  0.17789953  0.25215330  0.25222253     1.51700
Co52       Co  0.25922824  0.30691613  0.25604945     1.51600
Co53       Co  0.25924504  0.19738978  0.25605552     1.51500
O54         O  0.27573987  0.25215292  0.23707317    -1.43900
C55         C  0.35730393  0.17611741  0.20141655     1.07600
C56         C  0.17901564  0.31873541  0.18621628     1.07700
C57         C  0.35728526  0.32819973  0.20141876     1.07700
C58         C  0.17902590  0.18556874  0.18621629     1.07600
C59         C  0.16378173  0.10387303  0.09820283    -0.15200
C60         C  0.10241717  0.09672323  0.09699975     0.07000
C61         C  0.06619846  0.12029848  0.12424755    -0.15200
C62         C  0.09053068  0.15043497  0.15179736    -0.15200
C63         C  0.15189531  0.15758476  0.15300052     0.07000
C64         C  0.18811400  0.13400952  0.12575264    -0.15200
H65         H  0.19284580  0.08686677  0.07707666     0.11000
H66         H  0.01886653  0.11532178  0.12432686     0.11000
H67         H  0.06146684  0.16744121  0.17292302     0.11000
H68         H  0.23544591  0.13898616  0.12567364     0.11000
C69         C  0.11555924  0.16817958  0.36735227    -0.15200
C70         C  0.15569224  0.14753269  0.34042167     0.07000
C71         C  0.16697726  0.10628102  0.34844288    -0.15200
C72         C  0.13875346  0.08612819  0.38264776    -0.15200
C73         C  0.09862046  0.10677512  0.40957835     0.07000
C74         C  0.08733553  0.14802668  0.40155714    -0.15200
H75         H  0.10578924  0.20000939  0.36199242     0.11000
H76         H  0.19781011  0.08959826  0.32843991     0.11000
H77         H  0.14852261  0.05429844  0.38800741     0.11000
H78         H  0.05650361  0.16470912  0.42156030     0.11000
C79         C  0.16378903  0.40044568  0.09822054    -0.15200
C80         C  0.10242324  0.40758655  0.09699942     0.07000
C81         C  0.06619818  0.38400179  0.12423092    -0.15200
C82         C  0.09052365  0.35386248  0.15178005    -0.15200
C83         C  0.15188947  0.34672164  0.15300122     0.07000
C84         C  0.18811448  0.37030638  0.12576970    -0.15200
H85         H  0.19285968  0.41746015  0.07710874     0.11000
H86         H  0.01886710  0.38897636  0.12430097     0.11000
H87         H  0.06145301  0.33684794  0.17289175     0.11000
H88         H  0.23544558  0.36533206  0.12570010     0.11000
C89         C  0.41225207  0.14226192  0.09102494    -0.15200
C90         C  0.38349780  0.10497142  0.08579415     0.07000
C91         C  0.34797986  0.09020897  0.12000029    -0.15200
C92         C  0.34205937  0.11204541  0.15897564    -0.15200
C93         C  0.37081377  0.14933594  0.16420649     0.07000
C94         C  0.40633158  0.16409827  0.13000026    -0.15200
H95         H  0.44083214  0.15387981  0.06572563     0.11000
H96         H  0.32523343  0.06135842  0.11693077     0.11000
H97         H  0.31347921  0.10042737  0.18427556     0.11000
H98         H  0.42907825  0.19294840  0.13306955     0.11000
C99         C  0.41925816  0.36049516  0.34719154    -0.15200
C100        C  0.36359346  0.34146742  0.35031568     0.07000
C101        C  0.32171453  0.35862763  0.37850312    -0.15200
C102        C  0.33505544  0.39381227  0.40280865    -0.15200
C103        C  0.39072006  0.41284003  0.39968465     0.07000
C104        C  0.43259915  0.39567986  0.37149714    -0.15200
H105        H  0.45231739  0.34860714  0.32529408     0.11000
H106        H  0.27822960  0.34511869  0.38142001     0.11000
H107        H  0.30199710  0.40569982  0.42470559     0.11000
H108        H  0.47608370  0.40918901  0.36858055     0.11000
C109        C  0.43258404  0.10860676  0.37148512    -0.15200
C110        C  0.39070605  0.09146404  0.39968469     0.07000
C111        C  0.33505591  0.11051261  0.40282023    -0.15200
C112        C  0.32172944  0.14570063  0.37851514    -0.15200
C113        C  0.36360734  0.16284349  0.35031545     0.07000
C114        C  0.41925760  0.14379478  0.34717999    -0.15200
H115        H  0.47605860  0.09508049  0.36855868     0.11000
H116        H  0.30199865  0.09863881  0.42472647     0.11000
H117        H  0.27825558  0.15922629  0.38144164     0.11000
H118        H  0.45231494  0.15566863  0.32527349     0.11000
C119        C  0.08745185  0.35626102  0.40163280    -0.15200
C120        C  0.09863737  0.39753570  0.40958434     0.07000
C121        C  0.13865437  0.41820277  0.38257922    -0.15200
C122        C  0.16686063  0.39804695  0.34836801    -0.15200
C123        C  0.15567520  0.35677224  0.34041650     0.07000
C124        C  0.11565811  0.33610514  0.36742159    -0.15200
H125        H  0.05671178  0.33956166  0.42169676     0.11000
H126        H  0.14834318  0.45005136  0.38788307     0.11000
H127        H  0.19760062  0.41474619  0.32830452     0.11000
H128        H  0.10596982  0.30425649  0.36211787     0.11000
C129        C  0.34792810  0.41407686  0.11996631    -0.15200
C130        C  0.38350809  0.39932694  0.08578928     0.07000
C131        C  0.41231343  0.36205708  0.09105343    -0.15200
C132        C  0.40638467  0.34023100  0.13003451    -0.15200
C133        C  0.37080472  0.35498093  0.16421152     0.07000
C134        C  0.34199930  0.39225078  0.15894745    -0.15200
H135        H  0.32513947  0.44291059  0.11686985     0.11000
H136        H  0.44094218  0.35045054  0.06577808     0.11000
H137        H  0.42917383  0.31139740  0.13313096     0.11000
H138        H  0.31337033  0.40385737  0.18422312     0.11000
O139        O  0.38318701  0.46273403  0.55219508    -0.82000
O140        O  0.10518860  0.04332618  0.54279254    -0.82000
O141        O  0.02202793  0.43199991  0.55343874    -0.82000
O142        O  0.42634861  0.09000737  0.51562904    -0.81900
O143        O  0.10520162  0.46097541  0.54278240    -0.82100
O144        O  0.38317321  0.04156467  0.55219708    -0.82000
O145        O  0.02202068  0.07232495  0.55342864    -0.82000
O146        O  0.42637842  0.41429270  0.51563109    -0.83000
C147        C  0.39702748  0.42610820  0.54858181     1.07700
C148        C  0.07528645  0.06873953  0.56378409     1.07600
C149        C  0.07529714  0.43557275  0.56378428     1.07700
C150        C  0.39700842  0.07819056  0.54858388     1.07600
O151        O  0.37160284  0.04505037  0.95839966    -0.82000
O152        O  0.07564180  0.45833636  0.94876658    -0.82000
O153        O  0.46079966  0.45756952  0.93422692    -0.82000
O154        O  0.03288069  0.10340120  0.97035412    -0.82000
O155        O  0.07563965  0.04597962  0.94877221    -0.82000
O156        O  0.37162155  0.45925222  0.95839906    -0.82000
O157        O  0.46077870  0.04672703  0.93422562    -0.81900
O158        O  0.03292415  0.40091152  0.97037221    -0.82000
Co159      Co  0.38462948  0.50215055  0.50509517     1.51500
Co160      Co  0.07641300  0.00215481  0.99777802     1.51700
Co161      Co  0.49508441  0.44739196  0.49395105     1.51600
Co162      Co  0.49506728  0.05691839  0.99394498     1.51500
O163        O  0.47857292  0.50215527  0.51292736    -1.43900
C164        C  0.40770056  0.05779753  0.93030756     1.07600
C165        C  0.06867048  0.41936971  0.94543420     1.07700
C166        C  0.40772075  0.44650323  0.93030826     1.07700
C167        C  0.06864458  0.08494393  0.94542679     1.07600
O168        O  0.38269104  0.29505541  0.79160143    -0.82000
O169        O  0.17867275  0.20832844  0.80122843    -0.82000
O170        O  0.22138851  0.35339654  0.77962848    -0.82000
O171        O  0.29353359  0.20758084  0.81577476    -0.81900
O172        O  0.17867092  0.29597160  0.80123401    -0.82100
O173        O  0.38270927  0.20925755  0.79160048    -0.82000
O174        O  0.22143141  0.15090676  0.77964610    -0.82000
O175        O  0.29351299  0.29673845  0.81577378    -0.82000
C176        C  0.34659196  0.30780467  0.81969216     1.07700
C177        C  0.18566764  0.16936407  0.80457359     1.07600
C178        C  0.18564212  0.33493828  0.80456645     1.07700
C179        C  0.34661167  0.19651031  0.81969268     1.07600
O180        O  0.37113906  0.21274345  0.69780322    -0.82000
O181        O  0.14911086  0.29333274  0.70721812    -0.82000
O182        O  0.32793423  0.34001536  0.73436955    -0.82000
O183        O  0.23229164  0.18198334  0.69657175    -0.82000
O184        O  0.14912369  0.21098194  0.70720790    -0.82000
O185        O  0.37112547  0.29157403  0.69780542    -0.82000
O186        O  0.32796367  0.16430081  0.73437125    -0.81900
O187        O  0.23228463  0.32230830  0.69656174    -0.82000
Co188      Co  0.36968290  0.25215741  0.74490530     1.51500
Co189      Co  0.17789941  0.25215333  0.75222257     1.51700
Co190      Co  0.25922823  0.30691613  0.75604943     1.51600
Co191      Co  0.25924495  0.19738972  0.75605543     1.51500
O192        O  0.27573962  0.25215287  0.73707314    -1.43900
C193        C  0.35730401  0.17611757  0.70141649     1.07600
C194        C  0.17901539  0.31873543  0.68621626     1.07700
C195        C  0.35728508  0.32819987  0.70141880     1.07700
C196        C  0.17902591  0.18556871  0.68621618     1.07600
C197        C  0.16378201  0.10387300  0.59820286    -0.15200
C198        C  0.10241699  0.09672324  0.59699980     0.07000
C199        C  0.06619827  0.12029849  0.62424761    -0.15200
C200        C  0.09053081  0.15043490  0.65179723    -0.15200
C201        C  0.15189572  0.15758471  0.65300027     0.07000
C202        C  0.18811450  0.13400945  0.62575256    -0.15200
H203        H  0.19284581  0.08686622  0.57707664     0.11000
H204        H  0.01886517  0.11532221  0.62432668     0.11000
H205        H  0.06146768  0.16744167  0.67292267     0.11000
H206        H  0.23544737  0.13898596  0.62567416     0.11000
C207        C  0.11555908  0.16817979  0.86735250    -0.15200
C208        C  0.15569203  0.14753284  0.84042183     0.07000
C209        C  0.16697694  0.10628129  0.84844312    -0.15200
C210        C  0.13875298  0.08612855  0.88264795    -0.15200
C211        C  0.09862000  0.10677543  0.90957866     0.07000
C212        C  0.08733509  0.14802704  0.90155735    -0.15200
H213        H  0.10578971  0.20000962  0.86199254     0.11000
H214        H  0.19780891  0.08959854  0.82844011     0.11000
H215        H  0.14852248  0.05429881  0.88800751     0.11000
H216        H  0.05650241  0.16470996  0.92156053     0.11000
C217        C  0.16378894  0.40044550  0.59822071    -0.15200
C218        C  0.10242303  0.40758652  0.59699950     0.07000
C219        C  0.06619812  0.38400196  0.62423078    -0.15200
C220        C  0.09052374  0.35386263  0.65177987    -0.15200
C221        C  0.15188963  0.34672168  0.65300110     0.07000
C222        C  0.18811455  0.37030618  0.62576979    -0.15200
H223        H  0.19285906  0.41745943  0.57710906     0.11000
H224        H  0.01886698  0.38897622  0.62430069     0.11000
H225        H  0.06145372  0.33684884  0.67289160     0.11000
H226        H  0.23544580  0.36533196  0.62570001     0.11000
C227        C  0.41225245  0.14226235  0.59102490    -0.15200
C228        C  0.38349808  0.10497190  0.58579397     0.07000
C229        C  0.34798029  0.09020952  0.62000027    -0.15200
C230        C  0.34205979  0.11204590  0.65897564    -0.15200
C231        C  0.37081398  0.14933634  0.66420639     0.07000
C232        C  0.40633192  0.16409869  0.63000027    -0.15200
H233        H  0.44083265  0.15388039  0.56572550     0.11000
H234        H  0.32523353  0.06135949  0.61693073     0.11000
H235        H  0.31347962  0.10042795  0.68427541     0.11000
H236        H  0.42907774  0.19294921  0.63306950     0.11000
C237        C  0.41925816  0.36049522  0.84719145    -0.15200
C238        C  0.36359339  0.34146755  0.85031575     0.07000
C239        C  0.32171421  0.35862770  0.87850332    -0.15200
C240        C  0.33505502  0.39381234  0.90280884    -0.15200
C241        C  0.39071988  0.41284010  0.89968465     0.07000
C242        C  0.43259904  0.39567985  0.87149697    -0.15200
H243        H  0.45231694  0.34860720  0.82529396     0.11000
H244        H  0.27822956  0.34511847  0.88142030     0.11000
H245        H  0.30199592  0.40570025  0.92470583     0.11000
H246        H  0.47608433  0.40918887  0.86858015     0.11000
C247        C  0.43258299  0.10860691  0.87148531    -0.15200
C248        C  0.39070518  0.09146413  0.89968499     0.07000
C249        C  0.33505521  0.11051271  0.90282041    -0.15200
C250        C  0.32172885  0.14570083  0.87851517    -0.15200
C251        C  0.36360675  0.16284363  0.85031545     0.07000
C252        C  0.41925663  0.14379502  0.84718010    -0.15200
H253        H  0.47605676  0.09508128  0.86855888     0.11000
H254        H  0.30199759  0.09863912  0.92472688     0.11000
H255        H  0.27825532  0.15922659  0.88144156     0.11000
H256        H  0.45231368  0.15566839  0.82527375     0.11000
C257        C  0.08745193  0.35626104  0.90163288    -0.15200
C258        C  0.09863745  0.39753582  0.90958440     0.07000
C259        C  0.13865442  0.41820274  0.88257928    -0.15200
C260        C  0.16686045  0.39804661  0.84836812    -0.15200
C261        C  0.15567504  0.35677194  0.84041660     0.07000
C262        C  0.11565813  0.33610504  0.86742162    -0.15200
H263        H  0.05671208  0.33956174  0.92169683     0.11000
H264        H  0.14834357  0.45005144  0.88788260     0.11000
H265        H  0.19760030  0.41474534  0.82830484     0.11000
H266        H  0.10596962  0.30425637  0.86211765     0.11000
C267        C  0.34792791  0.41407701  0.61996645    -0.15200
C268        C  0.38350801  0.39932692  0.58578920     0.07000
C269        C  0.41231364  0.36205712  0.59105328    -0.15200
C270        C  0.40638465  0.34023109  0.63003430    -0.15200
C271        C  0.37080457  0.35498120  0.66421158     0.07000
C272        C  0.34199887  0.39225100  0.65894747    -0.15200
H273        H  0.32513876  0.44291063  0.61686958     0.11000
H274        H  0.44094338  0.35045072  0.56577752     0.11000
H275        H  0.42917383  0.31139736  0.63313099     0.11000
H276        H  0.31336925  0.40385774  0.68422341     0.11000
O277        O  0.38318696  0.96273401  0.05219506    -0.82000
O278        O  0.10518870  0.54332615  0.04279251    -0.82000
O279        O  0.02202791  0.93199988  0.05343892    -0.82000
O280        O  0.42634838  0.59000734  0.01562910    -0.81900
O281        O  0.10520161  0.96097546  0.04278246    -0.82100
O282        O  0.38317318  0.54156458  0.05219703    -0.82000
O283        O  0.02202072  0.57232493  0.05342860    -0.82000
O284        O  0.42637847  0.91429267  0.01563106    -0.83000
C285        C  0.39702776  0.92610823  0.04858188     1.07700
C286        C  0.07528648  0.56873941  0.06378415     1.07600
C287        C  0.07529720  0.93557273  0.06378436     1.07700
C288        C  0.39700821  0.57819047  0.04858388     1.07600
O289        O  0.37160311  0.54505034  0.45839969    -0.82000
O290        O  0.07564165  0.95833640  0.44876660    -0.82000
O291        O  0.46079968  0.95756951  0.43422670    -0.82000
O292        O  0.03288093  0.60340109  0.47035411    -0.82000
O293        O  0.07563973  0.54597964  0.44877208    -0.82000
O294        O  0.37162165  0.95925238  0.45839909    -0.82000
O295        O  0.46077891  0.54672699  0.43422543    -0.81900
O296        O  0.03292400  0.90091152  0.47037225    -0.82000
Co297      Co  0.38462936  0.00215054  0.00509507     1.51500
Co298      Co  0.07641302  0.50215484  0.49777801     1.51700
Co299      Co  0.49508437  0.94739196  0.99395114     1.51600
Co300      Co  0.49506737  0.55691833  0.49394495     1.51500
O301        O  0.47857264  0.00215529  0.01292731    -1.43900
C302        C  0.40770084  0.55779769  0.43030758     1.07600
C303        C  0.06867045  0.91936970  0.44543426     1.07700
C304        C  0.40772085  0.94650307  0.43030840     1.07700
C305        C  0.06864476  0.58494391  0.44542670     1.07600
O306        O  0.38269084  0.79505539  0.29160141    -0.82000
O307        O  0.17867296  0.70832836  0.30122830    -0.82000
O308        O  0.22138863  0.85339655  0.27962845    -0.82000
O309        O  0.29353359  0.70758089  0.31577499    -0.81900
O310        O  0.17867092  0.79597170  0.30123395    -0.82100
O311        O  0.38270934  0.70925758  0.29160057    -0.82000
O312        O  0.22143145  0.65090679  0.27964626    -0.82000
O313        O  0.29351288  0.79673833  0.31577371    -0.82000
C314        C  0.34659177  0.80780462  0.31969217     1.07700
C315        C  0.18566777  0.66936406  0.30457369     1.07600
C316        C  0.18564226  0.83493833  0.30456643     1.07700
C317        C  0.34661169  0.69651024  0.31969273     1.07600
O318        O  0.37113919  0.71274326  0.19780320    -0.82000
O319        O  0.14911122  0.79333266  0.20721811    -0.82000
O320        O  0.32793435  0.84001537  0.23436955    -0.82000
O321        O  0.23229165  0.68198326  0.19657195    -0.82000
O322        O  0.14912371  0.71098187  0.20720791    -0.82000
O323        O  0.37112531  0.79157398  0.19780529    -0.82000
O324        O  0.32796377  0.66430064  0.23437140    -0.81900
O325        O  0.23228477  0.82230819  0.19656187    -0.82000
Co326      Co  0.36968307  0.75215738  0.24490525     1.51500
Co327      Co  0.17789953  0.75215330  0.25222252     1.51700
Co328      Co  0.25922826  0.80691607  0.25604946     1.51600
Co329      Co  0.25924505  0.69738971  0.25605552     1.51500
O330        O  0.27573986  0.75215281  0.23707319    -1.43900
C331        C  0.35730399  0.67611738  0.20141653     1.07600
C332        C  0.17901567  0.81873532  0.18621627     1.07700
C333        C  0.35728516  0.82819983  0.20141882     1.07700
C334        C  0.17902593  0.68556865  0.18621629     1.07600
C335        C  0.16378178  0.60387305  0.09820287    -0.15200
C336        C  0.10241719  0.59672331  0.09699971     0.07000
C337        C  0.06619847  0.62029850  0.12424759    -0.15200
C338        C  0.09053072  0.65043498  0.15179739    -0.15200
C339        C  0.15189532  0.65758484  0.15300045     0.07000
C340        C  0.18811402  0.63400953  0.12575268    -0.15200
H341        H  0.19284577  0.58686692  0.07707661     0.11000
H342        H  0.01886650  0.61532192  0.12432675     0.11000
H343        H  0.06146682  0.66744136  0.17292295     0.11000
H344        H  0.23544591  0.63898628  0.12567356     0.11000
C345        C  0.11555910  0.66817975  0.36735237    -0.15200
C346        C  0.15569206  0.64753283  0.34042182     0.07000
C347        C  0.16697705  0.60628127  0.34844301    -0.15200
C348        C  0.13875331  0.58612836  0.38264787    -0.15200
C349        C  0.09862026  0.60677527  0.40957851     0.07000
C350        C  0.08733531  0.64802693  0.40155726    -0.15200
H351        H  0.10578929  0.70000951  0.36199235     0.11000
H352        H  0.19780982  0.58959886  0.32844010     0.11000
H353        H  0.14852266  0.55429857  0.38800735     0.11000
H354        H  0.05650332  0.66470972  0.42156049     0.11000
C355        C  0.16378957  0.90044558  0.09822057    -0.15200
C356        C  0.10242347  0.90758653  0.09699947     0.07000
C357        C  0.06619835  0.88400182  0.12423095    -0.15200
C358        C  0.09052381  0.85386255  0.15178007    -0.15200
C359        C  0.15188988  0.84672158  0.15300117     0.07000
C360        C  0.18811511  0.87030627  0.12576972    -0.15200
H361        H  0.19285991  0.91746022  0.07710867     0.11000
H362        H  0.01886721  0.88897646  0.12430098     0.11000
H363        H  0.06145306  0.83684808  0.17289181     0.11000
H364        H  0.23544708  0.86533141  0.12569987     0.11000
C365        C  0.41225217  0.64226203  0.09102488    -0.15200
C366        C  0.38349795  0.60497157  0.08579407     0.07000
C367        C  0.34798009  0.59020922  0.12000020    -0.15200
C368        C  0.34205962  0.61204568  0.15897557    -0.15200
C369        C  0.37081395  0.64933608  0.16420642     0.07000
C370        C  0.40633168  0.66409840  0.13000022    -0.15200
H371        H  0.44083223  0.65387990  0.06572559     0.11000
H372        H  0.32523413  0.56135873  0.11693084     0.11000
H373        H  0.31347941  0.60042787  0.18427534     0.11000
H374        H  0.42907831  0.69294851  0.13306954     0.11000
C375        C  0.41925805  0.86049524  0.34719163    -0.15200
C376        C  0.36359346  0.84146759  0.35031572     0.07000
C377        C  0.32171424  0.85862781  0.37850334    -0.15200
C378        C  0.33505499  0.89381246  0.40280890    -0.15200
C379        C  0.39071952  0.91284011  0.39968479     0.07000
C380        C  0.43259880  0.89567988  0.37149719    -0.15200
H381        H  0.45231746  0.84860724  0.32529410     0.11000
H382        H  0.27822980  0.84511875  0.38141997     0.11000
H383        H  0.30199577  0.90570054  0.42470595     0.11000
H384        H  0.47608326  0.90918898  0.36858061     0.11000
C385        C  0.43258360  0.60860705  0.37148501    -0.15200
C386        C  0.39070562  0.59146425  0.39968468     0.07000
C387        C  0.33505572  0.61051282  0.40282018    -0.15200
C388        C  0.32172938  0.64570083  0.37851506    -0.15200
C389        C  0.36360731  0.66284370  0.35031540     0.07000
C390        C  0.41925722  0.64379510  0.34717985    -0.15200
H391        H  0.47605709  0.59508113  0.36855859     0.11000
H392        H  0.30199855  0.59863938  0.42472645     0.11000
H393        H  0.27825557  0.65922640  0.38144159     0.11000
H394        H  0.45231509  0.65566900  0.32527337     0.11000
C395        C  0.08745199  0.85626102  0.40163273    -0.15200
C396        C  0.09863742  0.89753559  0.40958431     0.07000
C397        C  0.13865433  0.91820253  0.38257922    -0.15200
C398        C  0.16686058  0.89804667  0.34836795    -0.15200
C399        C  0.15567525  0.85677206  0.34041639     0.07000
C400        C  0.11565820  0.83610498  0.36742144    -0.15200
H401        H  0.05671203  0.83956201  0.42169650     0.11000
H402        H  0.14834310  0.95005055  0.38788313     0.11000
H403        H  0.19760049  0.91474616  0.32830458     0.11000
H404        H  0.10596976  0.80425633  0.36211781     0.11000
C405        C  0.34792822  0.91407672  0.11996635    -0.15200
C406        C  0.38350824  0.89932683  0.08578920     0.07000
C407        C  0.41231344  0.86205719  0.09105338    -0.15200
C408        C  0.40638448  0.84023123  0.13003457    -0.15200
C409        C  0.37080446  0.85498115  0.16421167     0.07000
C410        C  0.34199925  0.89225077  0.15894758    -0.15200
H411        H  0.32513965  0.94290968  0.11686974     0.11000
H412        H  0.44094236  0.85045041  0.06577816     0.11000
H413        H  0.42917352  0.81139810  0.13313104     0.11000
H414        H  0.31337015  0.90385783  0.18422319     0.11000
O415        O  0.38318704  0.96273398  0.55219515    -0.82000
O416        O  0.10518862  0.54332614  0.54279269    -0.82000
O417        O  0.02202800  0.93199986  0.55343875    -0.82000
O418        O  0.42634862  0.59000729  0.51562906    -0.81900
O419        O  0.10520159  0.96097553  0.54278247    -0.82100
O420        O  0.38317319  0.54156458  0.55219713    -0.82000
O421        O  0.02202064  0.57232480  0.55342852    -0.82000
O422        O  0.42637834  0.91429260  0.51563114    -0.83000
C423        C  0.39702744  0.92610814  0.54858186     1.07700
C424        C  0.07528632  0.56873943  0.56378415     1.07600
C425        C  0.07529716  0.93557281  0.56378433     1.07700
C426        C  0.39700845  0.57819044  0.54858391     1.07600
O427        O  0.37160302  0.54505024  0.95839960    -0.82000
O428        O  0.07564179  0.95833641  0.94876662    -0.82000
O429        O  0.46079969  0.95756955  0.93422691    -0.82000
O430        O  0.03288070  0.60340120  0.97035419    -0.82000
O431        O  0.07563955  0.54597968  0.94877211    -0.82000
O432        O  0.37162159  0.95925236  0.95839907    -0.82000
O433        O  0.46077886  0.54672701  0.93422559    -0.81900
O434        O  0.03292393  0.90091150  0.97037219    -0.82000
Co435      Co  0.38462951  0.00215053  0.50509515     1.51500
Co436      Co  0.07641303  0.50215477  0.99777794     1.51700
Co437      Co  0.49508442  0.94739191  0.49395108     1.51600
Co438      Co  0.49506726  0.55691831  0.99394500     1.51500
O439        O  0.47857295  0.00215514  0.51292731    -1.43900
C440        C  0.40770074  0.55779750  0.93030754     1.07600
C441        C  0.06867038  0.91936971  0.94543422     1.07700
C442        C  0.40772080  0.94650325  0.93030836     1.07700
C443        C  0.06864452  0.58494397  0.94542675     1.07600
O444        O  0.38269106  0.79505543  0.79160139    -0.82000
O445        O  0.17867269  0.70832835  0.80122835    -0.82000
O446        O  0.22138853  0.85339655  0.77962855    -0.82000
O447        O  0.29353350  0.70758085  0.81577487    -0.81900
O448        O  0.17867082  0.79597161  0.80123406    -0.82100
O449        O  0.38270932  0.70925758  0.79160057    -0.82000
O450        O  0.22143138  0.65090689  0.77964610    -0.82000
O451        O  0.29351302  0.79673834  0.81577380    -0.82000
C452        C  0.34659197  0.80780469  0.81969213     1.07700
C453        C  0.18566752  0.66936403  0.80457354     1.07600
C454        C  0.18564204  0.83493832  0.80456648     1.07700
C455        C  0.34661159  0.69651017  0.81969269     1.07600
O456        O  0.37113912  0.71274346  0.69780318    -0.82000
O457        O  0.14911083  0.79333273  0.70721817    -0.82000
O458        O  0.32793421  0.84001522  0.73436954    -0.82000
O459        O  0.23229152  0.68198336  0.69657166    -0.82000
O460        O  0.14912365  0.71098205  0.70720790    -0.82000
O461        O  0.37112551  0.79157406  0.69780546    -0.82000
O462        O  0.32796364  0.66430083  0.73437126    -0.81900
O463        O  0.23228460  0.82230821  0.69656171    -0.82000
Co464      Co  0.36968293  0.75215743  0.74490528     1.51500
Co465      Co  0.17789942  0.75215331  0.75222254     1.51700
Co466      Co  0.25922820  0.80691613  0.75604946     1.51600
Co467      Co  0.25924494  0.69738978  0.75605541     1.51500
O468        O  0.27573963  0.75215296  0.73707313    -1.43900
C469        C  0.35730401  0.67611760  0.70141650     1.07600
C470        C  0.17901533  0.81873541  0.68621629     1.07700
C471        C  0.35728497  0.82819981  0.70141878     1.07700
C472        C  0.17902573  0.68556878  0.68621619     1.07600
C473        C  0.16378135  0.60387312  0.59820301    -0.15200
C474        C  0.10241653  0.59672332  0.59699989     0.07000
C475        C  0.06619771  0.62029859  0.62424767    -0.15200
C476        C  0.09053015  0.65043506  0.65179739    -0.15200
C477        C  0.15189494  0.65758489  0.65300048     0.07000
C478        C  0.18811377  0.63400963  0.62575279    -0.15200
H479        H  0.19284508  0.58686657  0.57707700     0.11000
H480        H  0.01886487  0.61532211  0.62432659     0.11000
H481        H  0.06146653  0.66744199  0.67292298     0.11000
H482        H  0.23544590  0.63898622  0.62567422     0.11000
C483        C  0.11555909  0.66817975  0.86735249    -0.15200
C484        C  0.15569201  0.64753279  0.84042185     0.07000
C485        C  0.16697707  0.60628115  0.84844314    -0.15200
C486        C  0.13875315  0.58612832  0.88264796    -0.15200
C487        C  0.09862017  0.60677522  0.90957856     0.07000
C488        C  0.08733522  0.64802682  0.90155730    -0.15200
H489        H  0.10578943  0.70000959  0.86199266     0.11000
H490        H  0.19780907  0.58959848  0.82844014     0.11000
H491        H  0.14852270  0.55429852  0.88800754     0.11000
H492        H  0.05650258  0.66470932  0.92156030     0.11000
C493        C  0.16378892  0.90044559  0.59822067    -0.15200
C494        C  0.10242311  0.90758657  0.59699951     0.07000
C495        C  0.06619787  0.88400190  0.62423083    -0.15200
C496        C  0.09052330  0.85386256  0.65178001    -0.15200
C497        C  0.15188921  0.84672162  0.65300125     0.07000
C498        C  0.18811437  0.87030626  0.62576980    -0.15200
H499        H  0.19285925  0.91745994  0.57710896     0.11000
H500        H  0.01886689  0.88897675  0.62430057     0.11000
H501        H  0.06145248  0.83684799  0.67289177     0.11000
H502        H  0.23544559  0.86533195  0.62570015     0.11000
C503        C  0.41225227  0.64226214  0.59102491    -0.15200
C504        C  0.38349803  0.60497176  0.58579394     0.07000
C505        C  0.34798016  0.59020934  0.62000023    -0.15200
C506        C  0.34205965  0.61204573  0.65897568    -0.15200
C507        C  0.37081383  0.64933618  0.66420651     0.07000
C508        C  0.40633184  0.66409852  0.63000031    -0.15200
H509        H  0.44083243  0.65388034  0.56572550     0.11000
H510        H  0.32523346  0.56135946  0.61693050     0.11000
H511        H  0.31347949  0.60042740  0.68427557     0.11000
H512        H  0.42907815  0.69294852  0.63306962     0.11000
C513        C  0.41925829  0.86049543  0.84719158    -0.15200
C514        C  0.36359337  0.84146763  0.85031577     0.07000
C515        C  0.32171422  0.85862776  0.87850330    -0.15200
C516        C  0.33505514  0.89381239  0.90280886    -0.15200
C517        C  0.39071999  0.91284026  0.89968468     0.07000
C518        C  0.43259921  0.89568006  0.87149717    -0.15200
H519        H  0.45231679  0.84860766  0.82529402     0.11000
H520        H  0.27822950  0.84511855  0.88142021     0.11000
H521        H  0.30199600  0.90570037  0.92470580     0.11000
H522        H  0.47608468  0.90918940  0.86858019     0.11000
C523        C  0.43258313  0.60860674  0.87148531    -0.15200
C524        C  0.39070520  0.59146398  0.89968494     0.07000
C525        C  0.33505518  0.61051254  0.90282047    -0.15200
C526        C  0.32172882  0.64570065  0.87851537    -0.15200
C527        C  0.36360681  0.66284348  0.85031560     0.07000
C528        C  0.41925680  0.64379484  0.84718021    -0.15200
H529        H  0.47605698  0.59508075  0.86855873     0.11000
H530        H  0.30199723  0.59863856  0.92472693     0.11000
H531        H  0.27825531  0.65922653  0.88144179     0.11000
H532        H  0.45231390  0.65566838  0.82527385     0.11000
C533        C  0.08745188  0.85626099  0.90163292    -0.15200
C534        C  0.09863733  0.89753571  0.90958434     0.07000
C535        C  0.13865442  0.91820271  0.88257919    -0.15200
C536        C  0.16686060  0.89804680  0.84836803    -0.15200
C537        C  0.15567516  0.85677214  0.84041656     0.07000
C538        C  0.11565815  0.83610510  0.86742167    -0.15200
H539        H  0.05671204  0.83956163  0.92169693     0.11000
H540        H  0.14834268  0.95005137  0.88788232     0.11000
H541        H  0.19760067  0.91474599  0.82830460     0.11000
H542        H  0.10596964  0.80425651  0.86211774     0.11000
C543        C  0.34792786  0.91407693  0.61996647    -0.15200
C544        C  0.38350809  0.89932694  0.58578931     0.07000
C545        C  0.41231357  0.86205708  0.59105341    -0.15200
C546        C  0.40638464  0.84023110  0.63003448    -0.15200
C547        C  0.37080456  0.85498114  0.66421163     0.07000
C548        C  0.34199894  0.89225091  0.65894755    -0.15200
H549        H  0.32513879  0.94291058  0.61686979     0.11000
H550        H  0.44094329  0.85045057  0.56577795     0.11000
H551        H  0.42917392  0.81139754  0.63313120     0.11000
H552        H  0.31336930  0.90385737  0.68422330     0.11000
O553        O  0.88318710  0.46273391  0.05219511    -0.82000
O554        O  0.60518856  0.04332612  0.04279255    -0.82000
O555        O  0.52202795  0.43199984  0.05343888    -0.82000
O556        O  0.92634842  0.09000731  0.01562915    -0.81900
O557        O  0.60520157  0.46097552  0.04278244    -0.82100
O558        O  0.88317315  0.04156453  0.05219711    -0.82000
O559        O  0.52202069  0.07232489  0.05342857    -0.82000
O560        O  0.92637856  0.41429258  0.01563100    -0.83000
C561        C  0.89702772  0.42610809  0.04858177     1.07700
C562        C  0.57528644  0.06873946  0.06378406     1.07600
C563        C  0.57529717  0.43557276  0.06378430     1.07700
C564        C  0.89700808  0.07819043  0.04858388     1.07600
O565        O  0.87160308  0.04505027  0.45839968    -0.82000
O566        O  0.57564172  0.45833640  0.44876662    -0.82000
O567        O  0.96079946  0.45756958  0.43422682    -0.82000
O568        O  0.53288099  0.10340119  0.47035407    -0.82000
O569        O  0.57563966  0.04597967  0.44877203    -0.82000
O570        O  0.87162138  0.45925240  0.45839918    -0.82000
O571        O  0.96077876  0.04672704  0.43422554    -0.81900
O572        O  0.53292391  0.40091146  0.47037215    -0.82000
Co573      Co  0.88462949  0.50215049  0.00509512     1.51500
Co574      Co  0.57641315  0.00215478  0.49777796     1.51700
Co575      Co  0.99508438  0.44739192  0.99395113     1.51600
Co576      Co  0.99506728  0.05691832  0.49394499     1.51500
O577        O  0.97857273  0.50215519  0.01292730    -1.43900
C578        C  0.90770071  0.05779764  0.43030761     1.07600
C579        C  0.56867037  0.41936968  0.44543421     1.07700
C580        C  0.90772058  0.44650320  0.43030847     1.07700
C581        C  0.56864476  0.08494395  0.44542661     1.07600
O582        O  0.88269091  0.29505553  0.29160142    -0.82000
O583        O  0.67867288  0.20832844  0.30122838    -0.82000
O584        O  0.72138871  0.35339664  0.27962854    -0.82000
O585        O  0.79353362  0.20758090  0.31577495    -0.81900
O586        O  0.67867093  0.29597169  0.30123401    -0.82100
O587        O  0.88270940  0.20925763  0.29160058    -0.82000
O588        O  0.72143140  0.15090691  0.27964616    -0.82000
O589        O  0.79351292  0.29673827  0.31577370    -0.82000
C590        C  0.84659180  0.30780467  0.31969215     1.07700
C591        C  0.68566769  0.16936412  0.30457362     1.07600
C592        C  0.68564226  0.33493839  0.30456648     1.07700
C593        C  0.84661174  0.19651022  0.31969271     1.07600
O594        O  0.87113928  0.21274328  0.19780324    -0.82000
O595        O  0.64911108  0.29333269  0.20721815    -0.82000
O596        O  0.82793444  0.34001532  0.23436950    -0.82000
O597        O  0.73229176  0.18198335  0.19657197    -0.82000
O598        O  0.64912382  0.21098193  0.20720787    -0.82000
O599        O  0.87112544  0.29157389  0.19780530    -0.82000
O600        O  0.82796349  0.16430078  0.23437137    -0.81900
O601        O  0.73228485  0.32230822  0.19656176    -0.82000
Co602      Co  0.86968310  0.25215740  0.24490527     1.51500
Co603      Co  0.67789950  0.25215329  0.25222255     1.51700
Co604      Co  0.75922830  0.30691614  0.25604946     1.51600
Co605      Co  0.75924503  0.19738978  0.25605549     1.51500
O606        O  0.77573984  0.25215291  0.23707316    -1.43900
C607        C  0.85730393  0.17611742  0.20141659     1.07600
C608        C  0.67901561  0.31873542  0.18621630     1.07700
C609        C  0.85728521  0.32819973  0.20141873     1.07700
C610        C  0.67902610  0.18556872  0.18621624     1.07600
C611        C  0.66378184  0.10387300  0.09820280    -0.15200
C612        C  0.60241724  0.09672316  0.09699968     0.07000
C613        C  0.56619862  0.12029839  0.12424744    -0.15200
C614        C  0.59053105  0.15043487  0.15179721    -0.15200
C615        C  0.65189560  0.15758469  0.15300041     0.07000
C616        C  0.68811417  0.13400950  0.12575260    -0.15200
H617        H  0.69284594  0.08686677  0.07707665     0.11000
H618        H  0.51886661  0.11532182  0.12432683     0.11000
H619        H  0.56146765  0.16744105  0.17292278     0.11000
H620        H  0.73544595  0.13898618  0.12567365     0.11000
C621        C  0.61555928  0.16817962  0.36735231    -0.15200
C622        C  0.65569225  0.14753271  0.34042172     0.07000
C623        C  0.66697730  0.10628104  0.34844292    -0.15200
C624        C  0.63875347  0.08612817  0.38264772    -0.15200
C625        C  0.59862061  0.10677513  0.40957837     0.07000
C626        C  0.58733553  0.14802668  0.40155710    -0.15200
H627        H  0.60578934  0.20000945  0.36199254     0.11000
H628        H  0.69781024  0.08959832  0.32844002     0.11000
H629        H  0.64852274  0.05429840  0.38800741     0.11000
H630        H  0.55650377  0.16470911  0.42156027     0.11000
C631        C  0.66378915  0.40044568  0.09822053    -0.15200
C632        C  0.60242328  0.40758662  0.09699937     0.07000
C633        C  0.56619823  0.38400189  0.12423080    -0.15200
C634        C  0.59052386  0.35386258  0.15177991    -0.15200
C635        C  0.65188966  0.34672169  0.15300110     0.07000
C636        C  0.68811475  0.37030637  0.12576969    -0.15200
H637        H  0.69285984  0.41746014  0.07710873     0.11000
H638        H  0.51886707  0.38897635  0.12430094     0.11000
H639        H  0.56145368  0.33684816  0.17289150     0.11000
H640        H  0.73544568  0.36533202  0.12570016     0.11000
C641        C  0.91225210  0.14226185  0.09102497    -0.15200
C642        C  0.88349771  0.10497142  0.08579411     0.07000
C643        C  0.84797988  0.09020904  0.12000029    -0.15200
C644        C  0.84205935  0.11204546  0.15897566    -0.15200
C645        C  0.87081384  0.14933595  0.16420654     0.07000
C646        C  0.90633164  0.16409823  0.13000029    -0.15200
H647        H  0.94083224  0.15387965  0.06572568     0.11000
H648        H  0.82523313  0.06135856  0.11693063     0.11000
H649        H  0.81347925  0.10042745  0.18427555     0.11000
H650        H  0.92907836  0.19294835  0.13306954     0.11000
C651        C  0.91925835  0.36049548  0.34719161    -0.15200
C652        C  0.86359344  0.34146762  0.35031575     0.07000
C653        C  0.82171430  0.35862770  0.37850322    -0.15200
C654        C  0.83505507  0.39381234  0.40280879    -0.15200
C655        C  0.89071991  0.41284019  0.39968480     0.07000
C656        C  0.93259916  0.39568015  0.37149723    -0.15200
H657        H  0.95231707  0.34860778  0.32529397     0.11000
H658        H  0.77822974  0.34511855  0.38142010     0.11000
H659        H  0.80199611  0.40569991  0.42470579     0.11000
H660        H  0.97608466  0.40918934  0.36858072     0.11000
C661        C  0.93258344  0.10860679  0.37148525    -0.15200
C662        C  0.89070555  0.09146408  0.39968479     0.07000
C663        C  0.83505551  0.11051264  0.40282038    -0.15200
C664        C  0.82172906  0.14570069  0.37851524    -0.15200
C665        C  0.86360690  0.16284349  0.35031556     0.07000
C666        C  0.91925701  0.14379483  0.34718011    -0.15200
H667        H  0.97605739  0.09508073  0.36855856     0.11000
H668        H  0.80199838  0.09863885  0.42472664     0.11000
H669        H  0.77825517  0.15922639  0.38144176     0.11000
H670        H  0.95231391  0.15566830  0.32527374     0.11000
C671        C  0.58745181  0.35626101  0.40163281    -0.15200
C672        C  0.59863741  0.39753570  0.40958438     0.07000
C673        C  0.63865439  0.41820272  0.38257927    -0.15200
C674        C  0.66686065  0.39804688  0.34836806    -0.15200
C675        C  0.65567512  0.35677216  0.34041648     0.07000
C676        C  0.61565806  0.33610509  0.36742160    -0.15200
H677        H  0.55671183  0.33956175  0.42169677     0.11000
H678        H  0.64834325  0.45005132  0.38788311     0.11000
H679        H  0.69760071  0.41474609  0.32830465     0.11000
H680        H  0.60596906  0.30425645  0.36211761     0.11000
C681        C  0.84792826  0.41407681  0.11996631    -0.15200
C682        C  0.88350832  0.39932685  0.08578917     0.07000
C683        C  0.91231372  0.36205697  0.09105326    -0.15200
C684        C  0.90638486  0.34023094  0.13003439    -0.15200
C685        C  0.87080482  0.35498094  0.16421148     0.07000
C686        C  0.84199942  0.39225077  0.15894744    -0.15200
H687        H  0.82513958  0.44291053  0.11686989     0.11000
H688        H  0.94094306  0.35045041  0.06577780     0.11000
H689        H  0.92917384  0.31139731  0.13313101     0.11000
H690        H  0.81337041  0.40385736  0.18422311     0.11000
O691        O  0.88318689  0.46273404  0.55219506    -0.82000
O692        O  0.60518862  0.04332620  0.54279255    -0.82000
O693        O  0.52202789  0.43199992  0.55343871    -0.82000
O694        O  0.92634861  0.09000737  0.51562908    -0.81900
O695        O  0.60520149  0.46097537  0.54278240    -0.82100
O696        O  0.88317315  0.04156466  0.55219705    -0.82000
O697        O  0.52202062  0.07232492  0.55342861    -0.82000
O698        O  0.92637846  0.41429266  0.51563121    -0.83000
C699        C  0.89702741  0.42610822  0.54858185     1.07700
C700        C  0.57528638  0.06873953  0.56378411     1.07600
C701        C  0.57529702  0.43557276  0.56378428     1.07700
C702        C  0.89700841  0.07819056  0.54858391     1.07600
O703        O  0.87160307  0.04505038  0.95839958    -0.82000
O704        O  0.57564171  0.45833637  0.94876658    -0.82000
O705        O  0.96079967  0.45756949  0.93422686    -0.82000
O706        O  0.53288067  0.10340121  0.97035419    -0.82000
O707        O  0.57563955  0.04597957  0.94877213    -0.82000
O708        O  0.87162162  0.45925226  0.95839909    -0.82000
O709        O  0.96077894  0.04672698  0.93422558    -0.81900
O710        O  0.53292411  0.40091155  0.97037224    -0.82000
Co711      Co  0.88462939  0.50215055  0.50509514     1.51500
Co712      Co  0.57641300  0.00215481  0.99777798     1.51700
Co713      Co  0.99508432  0.44739196  0.49395109     1.51600
Co714      Co  0.99506728  0.05691838  0.99394496     1.51500
O715        O  0.97857272  0.50215527  0.51292737    -1.43900
C716        C  0.90770083  0.05779758  0.93030751     1.07600
C717        C  0.56867043  0.41936972  0.94543422     1.07700
C718        C  0.90772074  0.44650323  0.93030825     1.07700
C719        C  0.56864448  0.08494391  0.94542679     1.07600
O720        O  0.88269111  0.29505542  0.79160141    -0.82000
O721        O  0.67867272  0.20832845  0.80122838    -0.82000
O722        O  0.72138851  0.35339652  0.77962845    -0.82000
O723        O  0.79353343  0.20758090  0.81577475    -0.81900
O724        O  0.67867088  0.29597163  0.80123391    -0.82100
O725        O  0.88270936  0.20925750  0.79160054    -0.82000
O726        O  0.72143139  0.15090681  0.77964616    -0.82000
O727        O  0.79351303  0.29673845  0.81577377    -0.82000
C728        C  0.84659198  0.30780465  0.81969214     1.07700
C729        C  0.68566749  0.16936408  0.80457353     1.07600
C730        C  0.68564217  0.33493827  0.80456644     1.07700
C731        C  0.84661155  0.19651034  0.81969267     1.07600
O732        O  0.87113908  0.21274343  0.69780331    -0.82000
O733        O  0.64911090  0.29333269  0.70721816    -0.82000
O734        O  0.82793425  0.34001536  0.73436952    -0.82000
O735        O  0.73229157  0.18198330  0.69657169    -0.82000
O736        O  0.64912372  0.21098201  0.70720793    -0.82000
O737        O  0.87112549  0.29157404  0.69780546    -0.82000
O738        O  0.82796374  0.16430076  0.73437126    -0.81900
O739        O  0.73228440  0.32230826  0.69656171    -0.82000
Co740      Co  0.86968297  0.25215740  0.74490534     1.51500
Co741      Co  0.67789944  0.25215334  0.75222255     1.51700
Co742      Co  0.75922816  0.30691610  0.75604943     1.51600
Co743      Co  0.75924493  0.19738973  0.75605542     1.51500
O744        O  0.77573964  0.25215287  0.73707315    -1.43900
C745        C  0.85730389  0.17611757  0.70141647     1.07600
C746        C  0.67901518  0.31873543  0.68621628     1.07700
C747        C  0.85728514  0.32819989  0.70141885     1.07700
C748        C  0.67902582  0.18556873  0.68621622     1.07600
C749        C  0.66378147  0.10387303  0.59820297    -0.15200
C750        C  0.60241697  0.09672330  0.59699988     0.07000
C751        C  0.56619831  0.12029860  0.62424771    -0.15200
C752        C  0.59053059  0.15043508  0.65179746    -0.15200
C753        C  0.65189512  0.15758487  0.65300052     0.07000
C754        C  0.68811388  0.13400953  0.62575274    -0.15200
H755        H  0.69284514  0.08686651  0.57707694     0.11000
H756        H  0.51886631  0.11532219  0.62432662     0.11000
H757        H  0.56146659  0.16744187  0.67292295     0.11000
H758        H  0.73544589  0.13898578  0.62567418     0.11000
C759        C  0.61555907  0.16817974  0.86735248    -0.15200
C760        C  0.65569214  0.14753284  0.84042186     0.07000
C761        C  0.66697694  0.10628128  0.84844308    -0.15200
C762        C  0.63875305  0.08612854  0.88264798    -0.15200
C763        C  0.59862002  0.10677542  0.90957871     0.07000
C764        C  0.58733515  0.14802701  0.90155740    -0.15200
H765        H  0.60578980  0.20000955  0.86199259     0.11000
H766        H  0.69780909  0.08959853  0.82844005     0.11000
H767        H  0.64852262  0.05429884  0.88800763     0.11000
H768        H  0.55650254  0.16470997  0.92156066     0.11000
C769        C  0.66378886  0.40044553  0.59822066    -0.15200
C770        C  0.60242277  0.40758655  0.59699943     0.07000
C771        C  0.56619764  0.38400198  0.62423083    -0.15200
C772        C  0.59052311  0.35386266  0.65177993    -0.15200
C773        C  0.65188914  0.34672170  0.65300116     0.07000
C774        C  0.68811423  0.37030624  0.62576977    -0.15200
H775        H  0.69285961  0.41745956  0.57710892     0.11000
H776        H  0.51886576  0.38897646  0.62430068     0.11000
H777        H  0.56145294  0.33684860  0.67289186     0.11000
H778        H  0.73544546  0.36533189  0.62570013     0.11000
C779        C  0.91225228  0.14226240  0.59102504    -0.15200
C780        C  0.88349786  0.10497183  0.58579411     0.07000
C781        C  0.84798028  0.09020944  0.62000033    -0.15200
C782        C  0.84205971  0.11204592  0.65897564    -0.15200
C783        C  0.87081416  0.14933644  0.66420642     0.07000
C784        C  0.90633182  0.16409885  0.63000031    -0.15200
H785        H  0.94083151  0.15388035  0.56572567     0.11000
H786        H  0.82523371  0.06135927  0.61693089     0.11000
H787        H  0.81347975  0.10042792  0.68427535     0.11000
H788        H  0.92907847  0.19294951  0.63306949     0.11000
C789        C  0.91925791  0.36049514  0.84719146    -0.15200
C790        C  0.86359335  0.34146747  0.85031574     0.07000
C791        C  0.82171410  0.35862764  0.87850333    -0.15200
C792        C  0.83505484  0.39381230  0.90280891    -0.15200
C793        C  0.89071951  0.41284004  0.89968471     0.07000
C794        C  0.93259871  0.39567979  0.87149702    -0.15200
H795        H  0.95231705  0.34860729  0.82529399     0.11000
H796        H  0.77822952  0.34511841  0.88142029     0.11000
H797        H  0.80199574  0.40570019  0.92470594     0.11000
H798        H  0.97608308  0.40918874  0.86858010     0.11000
C799        C  0.93258297  0.10860699  0.87148527    -0.15200
C800        C  0.89070542  0.09146422  0.89968484     0.07000
C801        C  0.83505529  0.11051283  0.90282024    -0.15200
C802        C  0.82172861  0.14570097  0.87851512    -0.15200
C803        C  0.86360631  0.16284375  0.85031546     0.07000
C804        C  0.91925641  0.14379510  0.84718014    -0.15200
H805        H  0.97605670  0.09508136  0.86855885     0.11000
H806        H  0.80199853  0.09863913  0.92472666     0.11000
H807        H  0.77825405  0.15922665  0.88144155     0.11000
H808        H  0.95231348  0.15566848  0.82527384     0.11000
C809        C  0.58745194  0.35626099  0.90163297    -0.15200
C810        C  0.59863734  0.39753575  0.90958441     0.07000
C811        C  0.63865437  0.41820268  0.88257930    -0.15200
C812        C  0.66686033  0.39804661  0.84836804    -0.15200
C813        C  0.65567508  0.35677195  0.84041657     0.07000
C814        C  0.61565805  0.33610504  0.86742160    -0.15200
H815        H  0.55671223  0.33956164  0.92169710     0.11000
H816        H  0.64834290  0.45005135  0.88788242     0.11000
H817        H  0.69760039  0.41474546  0.82830479     0.11000
H818        H  0.60596964  0.30425638  0.86211770     0.11000
C819        C  0.84792774  0.41407716  0.61996643    -0.15200
C820        C  0.88350778  0.39932715  0.58578939     0.07000
C821        C  0.91231311  0.36205731  0.59105353    -0.15200
C822        C  0.90638418  0.34023131  0.63003461    -0.15200
C823        C  0.87080428  0.35498126  0.66421162     0.07000
C824        C  0.84199883  0.39225108  0.65894751    -0.15200
H825        H  0.82513873  0.44291075  0.61686975     0.11000
H826        H  0.94094214  0.35045086  0.56577843     0.11000
H827        H  0.92917274  0.31139766  0.63313088     0.11000
H828        H  0.81337000  0.40385790  0.68422343     0.11000
O829        O  0.88318693  0.96273406  0.05219512    -0.82000
O830        O  0.60518866  0.54332611  0.04279247    -0.82000
O831        O  0.52202800  0.93199988  0.05343890    -0.82000
O832        O  0.92634845  0.59000729  0.01562912    -0.81900
O833        O  0.60520163  0.96097552  0.04278243    -0.82100
O834        O  0.88317325  0.54156451  0.05219710    -0.82000
O835        O  0.52202074  0.57232492  0.05342860    -0.82000
O836        O  0.92637831  0.91429270  0.01563111    -0.83000
C837        C  0.89702744  0.92610825  0.04858186     1.07700
C838        C  0.57528650  0.56873938  0.06378410     1.07600
C839        C  0.57529724  0.93557279  0.06378432     1.07700
C840        C  0.89700811  0.57819041  0.04858385     1.07600
O841        O  0.87160308  0.54505031  0.45839968    -0.82000
O842        O  0.57564171  0.95833637  0.44876669    -0.82000
O843        O  0.96079950  0.95756950  0.43422682    -0.82000
O844        O  0.53288089  0.60340108  0.47035414    -0.82000
O845        O  0.57563976  0.54597964  0.44877210    -0.82000
O846        O  0.87162138  0.95925233  0.45839910    -0.82000
O847        O  0.96077875  0.54672697  0.43422550    -0.81900
O848        O  0.53292401  0.90091150  0.47037223    -0.82000
Co849      Co  0.88462939  0.00215055  0.00509509     1.51500
Co850      Co  0.57641311  0.50215482  0.49777802     1.51700
Co851      Co  0.99508435  0.94739196  0.99395113     1.51600
Co852      Co  0.99506730  0.55691831  0.49394495     1.51500
O853        O  0.97857266  0.00215529  0.01292730    -1.43900
C854        C  0.90770073  0.55779768  0.43030760     1.07600
C855        C  0.56867043  0.91936969  0.44543426     1.07700
C856        C  0.90772063  0.94650309  0.43030844     1.07700
C857        C  0.56864470  0.58494391  0.44542672     1.07600
O858        O  0.88269102  0.79505539  0.29160139    -0.82000
O859        O  0.67867298  0.70832840  0.30122839    -0.82000
O860        O  0.72138868  0.85339655  0.27962850    -0.82000
O861        O  0.79353362  0.70758083  0.31577493    -0.81900
O862        O  0.67867097  0.79597168  0.30123396    -0.82100
O863        O  0.88270939  0.70925755  0.29160054    -0.82000
O864        O  0.72143131  0.65090677  0.27964624    -0.82000
O865        O  0.79351308  0.79673832  0.31577369    -0.82000
C866        C  0.84659202  0.80780460  0.31969217     1.07700
C867        C  0.68566762  0.66936407  0.30457369     1.07600
C868        C  0.68564228  0.83493832  0.30456644     1.07700
C869        C  0.84661176  0.69651023  0.31969273     1.07600
O870        O  0.87113917  0.71274323  0.19780319    -0.82000
O871        O  0.64911111  0.79333262  0.20721811    -0.82000
O872        O  0.82793437  0.84001535  0.23436959    -0.82000
O873        O  0.73229174  0.68198324  0.19657198    -0.82000
O874        O  0.64912376  0.71098181  0.20720790    -0.82000
O875        O  0.87112537  0.79157400  0.19780531    -0.82000
O876        O  0.82796357  0.66430066  0.23437146    -0.81900
O877        O  0.73228477  0.82230821  0.19656185    -0.82000
Co878      Co  0.86968304  0.75215738  0.24490524     1.51500
Co879      Co  0.67789951  0.75215329  0.25222254     1.51700
Co880      Co  0.75922829  0.80691608  0.25604947     1.51600
Co881      Co  0.75924502  0.69738970  0.25605550     1.51500
O882        O  0.77573982  0.75215281  0.23707319    -1.43900
C883        C  0.85730378  0.67611736  0.20141655     1.07600
C884        C  0.67901559  0.81873534  0.18621627     1.07700
C885        C  0.85728509  0.82819985  0.20141880     1.07700
C886        C  0.67902607  0.68556865  0.18621625     1.07600
C887        C  0.66378187  0.60387305  0.09820286    -0.15200
C888        C  0.60241721  0.59672325  0.09699965     0.07000
C889        C  0.56619860  0.62029838  0.12424746    -0.15200
C890        C  0.59053107  0.65043487  0.15179723    -0.15200
C891        C  0.65189566  0.65758477  0.15300036     0.07000
C892        C  0.68811419  0.63400955  0.12575267    -0.15200
H893        H  0.69284585  0.58686696  0.07707666     0.11000
H894        H  0.51886648  0.61532189  0.12432672     0.11000
H895        H  0.56146770  0.66744113  0.17292264     0.11000
H896        H  0.73544615  0.63898636  0.12567360     0.11000
C897        C  0.61555905  0.66817988  0.36735248    -0.15200
C898        C  0.65569179  0.64753298  0.34042192     0.07000
C899        C  0.66697682  0.60628139  0.34844314    -0.15200
C900        C  0.63875306  0.58612842  0.38264792    -0.15200
C901        C  0.59862030  0.60677530  0.40957860     0.07000
C902        C  0.58733520  0.64802698  0.40155730    -0.15200
H903        H  0.60578939  0.70000969  0.36199260     0.11000
H904        H  0.69780871  0.58959907  0.32844022     0.11000
H905        H  0.64852272  0.55429859  0.38800732     0.11000
H906        H  0.55650343  0.66470975  0.42156052     0.11000
C907        C  0.66378930  0.90044564  0.09822055    -0.15200
C908        C  0.60242340  0.90758664  0.09699940     0.07000
C909        C  0.56619829  0.88400194  0.12423084    -0.15200
C910        C  0.59052383  0.85386262  0.15177997    -0.15200
C911        C  0.65188964  0.84672162  0.15300110     0.07000
C912        C  0.68811478  0.87030629  0.12576974    -0.15200
H913        H  0.69286008  0.91746014  0.07710873     0.11000
H914        H  0.51886713  0.88897645  0.12430095     0.11000
H915        H  0.56145361  0.83684826  0.17289162     0.11000
H916        H  0.73544573  0.86533142  0.12569990     0.11000
C917        C  0.91225199  0.64226186  0.09102493    -0.15200
C918        C  0.88349772  0.60497142  0.08579404     0.07000
C919        C  0.84797991  0.59020905  0.12000023    -0.15200
C920        C  0.84205945  0.61204552  0.15897562    -0.15200
C921        C  0.87081370  0.64933594  0.16420645     0.07000
C922        C  0.90633148  0.66409823  0.13000027    -0.15200
H923        H  0.94083229  0.65387982  0.06572572     0.11000
H924        H  0.82523317  0.56135856  0.11693067     0.11000
H925        H  0.81347947  0.60042780  0.18427548     0.11000
H926        H  0.92907733  0.69294834  0.13306938     0.11000
C927        C  0.91925848  0.86049539  0.34719157    -0.15200
C928        C  0.86359354  0.84146765  0.35031571     0.07000
C929        C  0.82171433  0.85862773  0.37850324    -0.15200
C930        C  0.83505506  0.89381234  0.40280873    -0.15200
C931        C  0.89071994  0.91284012  0.39968467     0.07000
C932        C  0.93259926  0.89568004  0.37149711    -0.15200
H933        H  0.95231735  0.84860732  0.32529404     0.11000
H934        H  0.77822962  0.84511866  0.38142004     0.11000
H935        H  0.80199609  0.90569999  0.42470569     0.11000
H936        H  0.97608479  0.90918931  0.36858054     0.11000
C937        C  0.93258343  0.60860702  0.37148510    -0.15200
C938        C  0.89070559  0.59146423  0.39968472     0.07000
C939        C  0.83505560  0.61051281  0.40282026    -0.15200
C940        C  0.82172921  0.64570083  0.37851515    -0.15200
C941        C  0.86360700  0.66284363  0.35031551     0.07000
C942        C  0.91925696  0.64379507  0.34717996    -0.15200
H943        H  0.97605722  0.59508123  0.36855852     0.11000
H944        H  0.80199855  0.59863936  0.42472650     0.11000
H945        H  0.77825528  0.65922643  0.38144172     0.11000
H946        H  0.95231404  0.65566877  0.32527357     0.11000
C947        C  0.58745198  0.85626104  0.40163274    -0.15200
C948        C  0.59863750  0.89753566  0.40958433     0.07000
C949        C  0.63865442  0.91820257  0.38257922    -0.15200
C950        C  0.66686060  0.89804663  0.34836799    -0.15200
C951        C  0.65567517  0.85677199  0.34041638     0.07000
C952        C  0.61565816  0.83610495  0.36742146    -0.15200
H953        H  0.55671211  0.83956211  0.42169652     0.11000
H954        H  0.64834370  0.95005063  0.38788317     0.11000
H955        H  0.69760054  0.91474604  0.32830465     0.11000
H956        H  0.60596901  0.80425631  0.36211754     0.11000
C957        C  0.84792790  0.91407683  0.11996647    -0.15200
C958        C  0.88350807  0.89932688  0.08578920     0.07000
C959        C  0.91231352  0.86205724  0.09105334    -0.15200
C960        C  0.90638442  0.84023130  0.13003447    -0.15200
C961        C  0.87080432  0.85498126  0.16421169     0.07000
C962        C  0.84199881  0.89225085  0.15894760    -0.15200
H963        H  0.82513871  0.94290985  0.11686960     0.11000
H964        H  0.94094326  0.85045053  0.06577812     0.11000
H965        H  0.92917362  0.81139819  0.13313118     0.11000
H966        H  0.81336905  0.90385771  0.18422330     0.11000
O967        O  0.88318697  0.96273399  0.55219511    -0.82000
O968        O  0.60518841  0.54332614  0.54279263    -0.82000
O969        O  0.52202796  0.93199986  0.55343875    -0.82000
O970        O  0.92634864  0.59000725  0.51562916    -0.81900
O971        O  0.60520143  0.96097549  0.54278245    -0.82100
O972        O  0.88317303  0.54156458  0.55219705    -0.82000
O973        O  0.52202062  0.57232482  0.55342857    -0.82000
O974        O  0.92637841  0.91429259  0.51563119    -0.83000
C975        C  0.89702746  0.92610816  0.54858188     1.07700
C976        C  0.57528627  0.56873945  0.56378415     1.07600
C977        C  0.57529708  0.93557281  0.56378434     1.07700
C978        C  0.89700834  0.57819042  0.54858392     1.07600
O979        O  0.87160312  0.54505024  0.95839958    -0.82000
O980        O  0.57564174  0.95833642  0.94876661    -0.82000
O981        O  0.96079958  0.95756952  0.93422682    -0.82000
O982        O  0.53288070  0.60340116  0.97035418    -0.82000
O983        O  0.57563949  0.54597965  0.94877209    -0.82000
O984        O  0.87162156  0.95925240  0.95839907    -0.82000
O985        O  0.96077892  0.54672700  0.93422556    -0.81900
O986        O  0.53292406  0.90091150  0.97037224    -0.82000
Co987      Co  0.88462947  0.00215052  0.50509513     1.51500
Co988      Co  0.57641300  0.50215477  0.99777793     1.51700
Co989      Co  0.99508435  0.94739191  0.49395110     1.51600
Co990      Co  0.99506728  0.55691832  0.99394499     1.51500
O991        O  0.97857276  0.00215512  0.51292728    -1.43900
C992        C  0.90770083  0.55779752  0.93030751     1.07600
C993        C  0.56867043  0.91936971  0.94543426     1.07700
C994        C  0.90772066  0.94650323  0.93030832     1.07700
C995        C  0.56864455  0.58494394  0.94542675     1.07600
O996        O  0.88269101  0.79505546  0.79160139    -0.82000
O997        O  0.67867272  0.70832835  0.80122837    -0.82000
O998        O  0.72138856  0.85339658  0.77962850    -0.82000
O999        O  0.79353341  0.70758088  0.81577489    -0.81900
O1000       O  0.67867085  0.79597162  0.80123402    -0.82100
O1001       O  0.88270920  0.70925758  0.79160056    -0.82000
O1002       O  0.72143143  0.65090692  0.77964608    -0.82000
O1003       O  0.79351296  0.79673830  0.81577377    -0.82000
C1004       C  0.84659187  0.80780464  0.81969213     1.07700
C1005       C  0.68566753  0.66936403  0.80457349     1.07600
C1006       C  0.68564215  0.83493831  0.80456648     1.07700
C1007       C  0.84661150  0.69651017  0.81969267     1.07600
O1008       O  0.87113898  0.71274346  0.69780325    -0.82000
O1009       O  0.64911092  0.79333272  0.70721821    -0.82000
O1010       O  0.82793421  0.84001522  0.73436949    -0.82000
O1011       O  0.73229157  0.68198335  0.69657166    -0.82000
O1012       O  0.64912367  0.71098202  0.70720787    -0.82000
O1013       O  0.87112536  0.79157401  0.69780540    -0.82000
O1014       O  0.82796371  0.66430076  0.73437126    -0.81900
O1015       O  0.73228448  0.82230818  0.69656170    -0.82000
Co1016     Co  0.86968294  0.75215742  0.74490529     1.51500
Co1017     Co  0.67789937  0.75215331  0.75222256     1.51700
Co1018     Co  0.75922813  0.80691612  0.75604946     1.51600
Co1019     Co  0.75924493  0.69738978  0.75605540     1.51500
O1020       O  0.77573955  0.75215297  0.73707311    -1.43900
C1021       C  0.85730387  0.67611758  0.70141646     1.07600
C1022       C  0.67901526  0.81873542  0.68621630     1.07700
C1023       C  0.85728514  0.82819982  0.70141881     1.07700
C1024       C  0.67902581  0.68556875  0.68621619     1.07600
C1025       C  0.66378158  0.60387302  0.59820288    -0.15200
C1026       C  0.60241707  0.59672327  0.59699976     0.07000
C1027       C  0.56619846  0.62029853  0.62424760    -0.15200
C1028       C  0.59053074  0.65043502  0.65179735    -0.15200
C1029       C  0.65189524  0.65758482  0.65300048     0.07000
C1030       C  0.68811399  0.63400957  0.62575270    -0.15200
H1031       H  0.69284530  0.58686642  0.57707680     0.11000
H1032       H  0.51886667  0.61532227  0.62432663     0.11000
H1033       H  0.56146694  0.66744126  0.67292298     0.11000
H1034       H  0.73544594  0.63898617  0.62567407     0.11000
C1035       C  0.61555924  0.66817958  0.86735236    -0.15200
C1036       C  0.65569237  0.64753260  0.84042174     0.07000
C1037       C  0.66697735  0.60628100  0.84844289    -0.15200
C1038       C  0.63875341  0.58612824  0.88264782    -0.15200
C1039       C  0.59862030  0.60677521  0.90957854     0.07000
C1040       C  0.58733535  0.64802676  0.90155728    -0.15200
H1041       H  0.60579013  0.70000937  0.86199265     0.11000
H1042       H  0.69781014  0.58959827  0.82843981     0.11000
H1043       H  0.64852282  0.55429850  0.88800761     0.11000
H1044       H  0.55650271  0.66470935  0.92156035     0.11000
C1045       C  0.66378914  0.90044569  0.59822052    -0.15200
C1046       C  0.60242330  0.90758662  0.59699937     0.07000
C1047       C  0.56619813  0.88400191  0.62423081    -0.15200
C1048       C  0.59052336  0.85386257  0.65177999    -0.15200
C1049       C  0.65188918  0.84672166  0.65300121     0.07000
C1050       C  0.68811439  0.87030636  0.62576971    -0.15200
H1051       H  0.69285993  0.91746016  0.57710871     0.11000
H1052       H  0.51886699  0.88897675  0.62430064     0.11000
H1053       H  0.56145257  0.83684801  0.67289174     0.11000
H1054       H  0.73544557  0.86533193  0.62570020     0.11000
C1055       C  0.91225209  0.64226208  0.59102501    -0.15200
C1056       C  0.88349781  0.60497164  0.58579401     0.07000
C1057       C  0.84798023  0.59020928  0.62000017    -0.15200
C1058       C  0.84205977  0.61204582  0.65897554    -0.15200
C1059       C  0.87081409  0.64933626  0.66420648     0.07000
C1060       C  0.90633168  0.66409858  0.63000036    -0.15200
H1061       H  0.94083135  0.65388030  0.56572572     0.11000
H1062       H  0.82523354  0.56135931  0.61693072     0.11000
H1063       H  0.81348042  0.60042751  0.68427528     0.11000
H1064       H  0.92907826  0.69294862  0.63306961     0.11000
C1065       C  0.91925777  0.86049531  0.84719167    -0.15200
C1066       C  0.86359287  0.84146750  0.85031582     0.07000
C1067       C  0.82171368  0.85862763  0.87850336    -0.15200
C1068       C  0.83505461  0.89381226  0.90280894    -0.15200
C1069       C  0.89071946  0.91284013  0.89968472     0.07000
C1070       C  0.93259867  0.89567993  0.87149723    -0.15200
H1071       H  0.95231663  0.84860768  0.82529417     0.11000
H1072       H  0.77822812  0.84511836  0.88142016     0.11000
H1073       H  0.80199583  0.90570040  0.92470595     0.11000
H1074       H  0.97608330  0.90918920  0.86858014     0.11000
C1075       C  0.93258321  0.60860681  0.87148526    -0.15200
C1076       C  0.89070548  0.59146402  0.89968484     0.07000
C1077       C  0.83505558  0.61051250  0.90282032    -0.15200
C1078       C  0.82172913  0.64570060  0.87851522    -0.15200
C1079       C  0.86360688  0.66284352  0.85031555     0.07000
C1080       C  0.91925681  0.64379490  0.84718016    -0.15200
H1081       H  0.97605701  0.59508086  0.86855873     0.11000
H1082       H  0.80199825  0.59863862  0.92472669     0.11000
H1083       H  0.77825546  0.65922628  0.88144171     0.11000
H1084       H  0.95231395  0.65566853  0.82527383     0.11000
C1085       C  0.58745185  0.85626095  0.90163303    -0.15200
C1086       C  0.59863730  0.89753568  0.90958443     0.07000
C1087       C  0.63865425  0.91820261  0.88257927    -0.15200
C1088       C  0.66686032  0.89804669  0.84836802    -0.15200
C1089       C  0.65567497  0.85677202  0.84041655     0.07000
C1090       C  0.61565803  0.83610503  0.86742167    -0.15200
H1091       H  0.55671214  0.83956160  0.92169714     0.11000
H1092       H  0.64834281  0.95005124  0.88788237     0.11000
H1093       H  0.69759955  0.91474583  0.82830455     0.11000
H1094       H  0.60596966  0.80425642  0.86211789     0.11000
C1095       C  0.84792790  0.91407706  0.61996641    -0.15200
C1096       C  0.88350792  0.89932707  0.58578934     0.07000
C1097       C  0.91231329  0.86205721  0.59105348    -0.15200
C1098       C  0.90638436  0.84023119  0.63003455    -0.15200
C1099       C  0.87080443  0.85498115  0.66421154     0.07000
C1100       C  0.84199904  0.89225093  0.65894747    -0.15200
H1101       H  0.82513885  0.94291074  0.61686991     0.11000
H1102       H  0.94094220  0.85045046  0.56577814     0.11000
H1103       H  0.92917289  0.81139765  0.63313096     0.11000
H1104       H  0.81337009  0.90385741  0.68422318     0.11000
loop_ 
_geom_bond_atom_site_label_1 
_geom_bond_atom_site_label_2 
_geom_bond_distance 
_geom_bond_site_symmetry_2 
_ccdc_geom_bond_type 
O1            C9   1.252       .  A
O1          Co21   1.932       .  S
O2           C10   1.257       .  A
O2         Co160   2.022   1_554  S
O3           C11   1.241       .  A
O3         Co575   1.959   1_454  S
O4           C12   1.272       .  A
O4         Co162   2.017   1_554  S
O5           C11   1.257       .  A
O5         Co436   2.022   1_554  S
O6           C12   1.252       .  A
O6         Co297   1.932       .  S
O7           C10   1.241       .  A
O7         Co714   1.959   1_454  S
O8            C9   1.272       .  A
O8          Co23   2.017   1_554  S
C9          C130   1.470       .  S
C10          C60   1.488       .  S
C11          C80   1.488       .  S
C12          C90   1.470       .  S
O13          C26   1.264       .  A
O13        Co435   2.018       .  S
O14          C27   1.297       .  A
O14        Co298   2.072       .  S
O15          C28   1.255       .  A
O15        Co161   1.983       .  S
O16          C29   1.273       .  A
O16        Co576   1.900   1_455  S
O17          C29   1.297       .  A
O17         Co22   2.072       .  S
O18          C28   1.264       .  A
O18        Co159   2.018       .  S
O19          C26   1.255       .  A
O19         Co24   1.983       .  S
O20          C27   1.273       .  A
O20        Co713   1.900   1_455  S
Co21        O282   1.932       .  S
Co21        O427   2.018   1_554  S
Co21        O156   2.018   1_554  S
Co21         O25   2.128       .  S
Co22        O140   2.022       .  S
Co22        O419   2.022   1_545  S
Co22        O290   2.072   1_545  S
Co22        O991   2.265   1_455  S
Co23        O555   1.959   1_556  S
Co23        O153   1.983       .  S
Co23        O710   1.900       .  S
Co23         O25   1.932   1_556  S
Co24        O142   2.017       .  S
Co24        O697   1.959       .  S
Co24        O568   1.900       .  S
Co24        O439   1.932       .  S
O25        Co988   2.265   1_554  S
O25        Co438   1.932   1_554  S
C26         C110   1.492       .  S
C27         C120   1.480       .  S
C28         C103   1.492       .  S
C29          C73   1.480       .  S
O30          C38   1.264       .  A
O30         Co50   2.018       .  S
O31          C39   1.297       .  A
O31         Co51   2.072       .  S
O32          C40   1.273       .  A
O32         Co52   1.900       .  S
O33          C41   1.255       .  A
O33         Co53   1.983       .  S
O34          C40   1.297       .  A
O34         Co51   2.072       .  S
O35          C41   1.264       .  A
O35         Co50   2.018       .  S
O36          C39   1.273       .  A
O36         Co53   1.900       .  S
O37          C38   1.255       .  A
O37         Co52   1.983       .  S
C38         C100   1.492       .  S
C39          C70   1.480       .  S
C40         C123   1.480       .  S
C41         C113   1.492       .  S
O42          C55   1.252       .  A
O42         Co50   1.932       .  S
O43          C56   1.257       .  A
O43         Co51   2.022       .  S
O44          C57   1.272       .  A
O44         Co52   2.017       .  S
O45          C58   1.241       .  A
O45         Co53   1.959       .  S
O46          C58   1.257       .  A
O46         Co51   2.022       .  S
O47          C57   1.252       .  A
O47         Co50   1.932       .  S
O48          C55   1.272       .  A
O48         Co53   2.017       .  S
O49          C56   1.241       .  A
O49         Co52   1.959       .  S
Co50         O54   2.128       .  S
Co51         O54   2.265       .  S
Co52         O54   1.932       .  S
Co53         O54   1.932       .  S
C55          C93   1.470       .  S
C56          C83   1.488       .  S
C57         C133   1.470       .  S
C58          C63   1.488       .  S
C59          C60   1.404       .  A
C59          C64   1.402       .  A
C59          H65   1.083       .  S
C60          C61   1.409       .  A
C61          C62   1.402       .  A
C61          H66   1.080       .  S
C62          C63   1.404       .  A
C62          H67   1.083       .  S
C63          C64   1.409       .  A
C64          H68   1.080       .  S
C69          C70   1.408       .  A
C69          C74   1.397       .  A
C69          H75   1.083       .  S
C70          C71   1.403       .  A
C71          C72   1.397       .  A
C71          H76   1.083       .  S
C72          C73   1.408       .  A
C72          H77   1.083       .  S
C73          C74   1.403       .  A
C74          H78   1.083       .  S
C79          C80   1.404       .  A
C79          C84   1.402       .  A
C79          H85   1.083       .  S
C80          C81   1.409       .  A
C81          C82   1.402       .  A
C81          H86   1.080       .  S
C82          C83   1.404       .  A
C82          H87   1.083       .  S
C83          C84   1.409       .  A
C84          H88   1.080       .  S
C89          C90   1.397       .  A
C89          C94   1.393       .  A
C89          H95   1.083       .  S
C90          C91   1.412       .  A
C91          C92   1.393       .  A
C91          H96   1.083       .  S
C92          C93   1.397       .  A
C92          H97   1.083       .  S
C93          C94   1.412       .  A
C94          H98   1.083       .  S
C99         C100   1.409       .  A
C99         C104   1.403       .  A
C99         H105   1.083       .  S
C100        C101   1.407       .  A
C101        C102   1.403       .  A
C101        H106   1.083       .  S
C102        C103   1.409       .  A
C102        H107   1.083       .  S
C103        C104   1.407       .  A
C104        H108   1.083       .  S
C109        C110   1.407       .  A
C109        C114   1.403       .  A
C109        H115   1.083       .  S
C110        C111   1.409       .  A
C111        C112   1.403       .  A
C111        H116   1.083       .  S
C112        C113   1.407       .  A
C112        H117   1.083       .  S
C113        C114   1.409       .  A
C114        H118   1.083       .  S
C119        C120   1.403       .  A
C119        C124   1.397       .  A
C119        H125   1.083       .  S
C120        C121   1.408       .  A
C121        C122   1.397       .  A
C121        H126   1.083       .  S
C122        C123   1.403       .  A
C122        H127   1.083       .  S
C123        C124   1.408       .  A
C124        H128   1.083       .  S
C129        C130   1.412       .  A
C129        C134   1.393       .  A
C129        H135   1.083       .  S
C130        C131   1.397       .  A
C131        C132   1.393       .  A
C131        H136   1.083       .  S
C132        C133   1.412       .  A
C132        H137   1.083       .  S
C133        C134   1.397       .  A
C134        H138   1.083       .  S
O139        C147   1.252       .  A
O139       Co159   1.932       .  S
O140        C148   1.257       .  A
O141        C149   1.241       .  A
O141       Co713   1.959   1_455  S
O142        C150   1.272       .  A
O143        C149   1.257       .  A
O143       Co298   2.022       .  S
O144        C150   1.252       .  A
O144       Co435   1.932       .  S
O145        C148   1.241       .  A
O145       Co576   1.959   1_455  S
O146        C147   1.272       .  A
O146       Co161   2.017       .  S
C147        C268   1.470       .  S
C148        C198   1.488       .  S
C149        C218   1.488       .  S
C150        C228   1.470       .  S
O151        C164   1.264       .  A
O151       Co297   2.018   1_556  S
O152        C165   1.297       .  A
O152       Co436   2.072       .  S
O153        C166   1.255       .  A
O154        C167   1.273       .  A
O154       Co714   1.900   1_455  S
O155        C167   1.297       .  A
O155       Co160   2.072       .  S
O156        C166   1.264       .  A
O157        C164   1.255       .  A
O157       Co162   1.983       .  S
O158        C165   1.273       .  A
O158       Co575   1.900   1_455  S
Co159       O420   1.932       .  S
Co159       O289   2.018       .  S
Co159       O163   2.128       .  S
Co160       O281   2.022   1_546  S
Co160       O428   2.072   1_545  S
Co160       O853   2.265   1_456  S
Co161       O693   1.959       .  S
Co161       O572   1.900       .  S
Co161       O163   1.932       .  S
Co162       O559   1.959   1_556  S
Co162       O706   1.900       .  S
Co162       O301   1.932   1_556  S
O163       Co850   2.265       .  S
O163       Co300   1.932       .  S
C164        C248   1.492       .  S
C165        C258   1.480       .  S
C166        C241   1.492       .  S
C167        C211   1.480       .  S
O168        C176   1.264       .  A
O168       Co188   2.018       .  S
O169        C177   1.297       .  A
O169       Co189   2.072       .  S
O170        C178   1.273       .  A
O170       Co190   1.900       .  S
O171        C179   1.255       .  A
O171       Co191   1.983       .  S
O172        C178   1.297       .  A
O172       Co189   2.072       .  S
O173        C179   1.264       .  A
O173       Co188   2.018       .  S
O174        C177   1.273       .  A
O174       Co191   1.900       .  S
O175        C176   1.255       .  A
O175       Co190   1.983       .  S
C176        C238   1.492       .  S
C177        C208   1.480       .  S
C178        C261   1.480       .  S
C179        C251   1.492       .  S
O180        C193   1.252       .  A
O180       Co188   1.932       .  S
O181        C194   1.257       .  A
O181       Co189   2.022       .  S
O182        C195   1.272       .  A
O182       Co190   2.017       .  S
O183        C196   1.241       .  A
O183       Co191   1.959       .  S
O184        C196   1.257       .  A
O184       Co189   2.022       .  S
O185        C195   1.252       .  A
O185       Co188   1.932       .  S
O186        C193   1.272       .  A
O186       Co191   2.017       .  S
O187        C194   1.241       .  A
O187       Co190   1.959       .  S
Co188       O192   2.128       .  S
Co189       O192   2.265       .  S
Co190       O192   1.932       .  S
Co191       O192   1.932       .  S
C193        C231   1.470       .  S
C194        C221   1.488       .  S
C195        C271   1.470       .  S
C196        C201   1.488       .  S
C197        C198   1.404       .  A
C197        C202   1.402       .  A
C197        H203   1.083       .  S
C198        C199   1.409       .  A
C199        C200   1.402       .  A
C199        H204   1.081       .  S
C200        C201   1.404       .  A
C200        H205   1.083       .  S
C201        C202   1.409       .  A
C202        H206   1.080       .  S
C207        C208   1.408       .  A
C207        C212   1.397       .  A
C207        H213   1.083       .  S
C208        C209   1.403       .  A
C209        C210   1.397       .  A
C209        H214   1.083       .  S
C210        C211   1.408       .  A
C210        H215   1.083       .  S
C211        C212   1.403       .  A
C212        H216   1.083       .  S
C217        C218   1.404       .  A
C217        C222   1.402       .  A
C217        H223   1.083       .  S
C218        C219   1.409       .  A
C219        C220   1.402       .  A
C219        H224   1.080       .  S
C220        C221   1.404       .  A
C220        H225   1.083       .  S
C221        C222   1.409       .  A
C222        H226   1.080       .  S
C227        C228   1.397       .  A
C227        C232   1.393       .  A
C227        H233   1.083       .  S
C228        C229   1.412       .  A
C229        C230   1.393       .  A
C229        H234   1.083       .  S
C230        C231   1.397       .  A
C230        H235   1.083       .  S
C231        C232   1.412       .  A
C232        H236   1.083       .  S
C237        C238   1.409       .  A
C237        C242   1.403       .  A
C237        H243   1.083       .  S
C238        C239   1.407       .  A
C239        C240   1.403       .  A
C239        H244   1.083       .  S
C240        C241   1.409       .  A
C240        H245   1.083       .  S
C241        C242   1.407       .  A
C242        H246   1.083       .  S
C247        C248   1.407       .  A
C247        C252   1.403       .  A
C247        H253   1.083       .  S
C248        C249   1.409       .  A
C249        C250   1.403       .  A
C249        H254   1.083       .  S
C250        C251   1.407       .  A
C250        H255   1.083       .  S
C251        C252   1.409       .  A
C252        H256   1.083       .  S
C257        C258   1.403       .  A
C257        C262   1.397       .  A
C257        H263   1.083       .  S
C258        C259   1.408       .  A
C259        C260   1.397       .  A
C259        H264   1.083       .  S
C260        C261   1.403       .  A
C260        H265   1.083       .  S
C261        C262   1.408       .  A
C262        H266   1.083       .  S
C267        C268   1.412       .  A
C267        C272   1.393       .  A
C267        H273   1.083       .  S
C268        C269   1.397       .  A
C269        C270   1.393       .  A
C269        H274   1.083       .  S
C270        C271   1.412       .  A
C270        H275   1.083       .  S
C271        C272   1.397       .  A
C272        H276   1.083       .  S
O277        C285   1.252       .  A
O277       Co297   1.932   1_565  S
O278        C286   1.257       .  A
O278       Co436   2.022   1_554  S
O279        C287   1.241       .  A
O279       Co851   1.959   1_454  S
O280        C288   1.272       .  A
O280       Co438   2.017   1_554  S
O281        C287   1.257       .  A
O282        C288   1.252       .  A
O283        C286   1.241       .  A
O283       Co990   1.959   1_454  S
O284        C285   1.272       .  A
O284       Co299   2.017   1_554  S
C285        C406   1.470       .  S
C286        C336   1.488       .  S
C287        C356   1.488       .  S
C288        C366   1.470       .  S
O289        C302   1.264       .  A
O290        C303   1.297       .  A
O291        C304   1.255       .  A
O291       Co437   1.983       .  S
O292        C305   1.273       .  A
O292       Co852   1.900   1_455  S
O293        C305   1.297       .  A
O293       Co298   2.072       .  S
O294        C304   1.264       .  A
O294       Co435   2.018   1_565  S
O295        C302   1.255       .  A
O295       Co300   1.983       .  S
O296        C303   1.273       .  A
O296       Co989   1.900   1_455  S
Co297       O432   2.018   1_544  S
Co297       O301   2.128       .  S
Co298       O416   2.022       .  S
Co298       O715   2.265   1_455  S
Co299       O831   1.959   1_556  S
Co299       O429   1.983       .  S
Co299       O986   1.900       .  S
Co299       O301   1.932   1_566  S
Co300       O418   2.017       .  S
Co300       O973   1.959       .  S
Co300       O844   1.900       .  S
O301       Co712   2.265   1_554  S
C302        C386   1.492       .  S
C303        C396   1.480       .  S
C304        C379   1.492       .  S
C305        C349   1.480       .  S
O306        C314   1.264       .  A
O306       Co326   2.018       .  S
O307        C315   1.297       .  A
O307       Co327   2.072       .  S
O308        C316   1.273       .  A
O308       Co328   1.900       .  S
O309        C317   1.255       .  A
O309       Co329   1.983       .  S
O310        C316   1.297       .  A
O310       Co327   2.072       .  S
O311        C317   1.264       .  A
O311       Co326   2.018       .  S
O312        C315   1.273       .  A
O312       Co329   1.900       .  S
O313        C314   1.255       .  A
O313       Co328   1.983       .  S
C314        C376   1.492       .  S
C315        C346   1.480       .  S
C316        C399   1.480       .  S
C317        C389   1.492       .  S
O318        C331   1.252       .  A
O318       Co326   1.932       .  S
O319        C332   1.257       .  A
O319       Co327   2.022       .  S
O320        C333   1.272       .  A
O320       Co328   2.017       .  S
O321        C334   1.241       .  A
O321       Co329   1.959       .  S
O322        C334   1.257       .  A
O322       Co327   2.022       .  S
O323        C333   1.252       .  A
O323       Co326   1.932       .  S
O324        C331   1.272       .  A
O324       Co329   2.017       .  S
O325        C332   1.241       .  A
O325       Co328   1.959       .  S
Co326       O330   2.128       .  S
Co327       O330   2.265       .  S
Co328       O330   1.932       .  S
Co329       O330   1.932       .  S
C331        C369   1.470       .  S
C332        C359   1.488       .  S
C333        C409   1.470       .  S
C334        C339   1.488       .  S
C335        C336   1.404       .  A
C335        C340   1.402       .  A
C335        H341   1.083       .  S
C336        C337   1.409       .  A
C337        C338   1.402       .  A
C337        H342   1.080       .  S
C338        C339   1.404       .  A
C338        H343   1.083       .  S
C339        C340   1.409       .  A
C340        H344   1.080       .  S
C345        C346   1.408       .  A
C345        C350   1.397       .  A
C345        H351   1.083       .  S
C346        C347   1.403       .  A
C347        C348   1.397       .  A
C347        H352   1.083       .  S
C348        C349   1.408       .  A
C348        H353   1.083       .  S
C349        C350   1.403       .  A
C350        H354   1.083       .  S
C355        C356   1.404       .  A
C355        C360   1.402       .  A
C355        H361   1.083       .  S
C356        C357   1.409       .  A
C357        C358   1.402       .  A
C357        H362   1.080       .  S
C358        C359   1.404       .  A
C358        H363   1.083       .  S
C359        C360   1.409       .  A
C360        H364   1.080       .  S
C365        C366   1.397       .  A
C365        C370   1.393       .  A
C365        H371   1.083       .  S
C366        C367   1.412       .  A
C367        C368   1.393       .  A
C367        H372   1.083       .  S
C368        C369   1.397       .  A
C368        H373   1.083       .  S
C369        C370   1.412       .  A
C370        H374   1.083       .  S
C375        C376   1.409       .  A
C375        C380   1.403       .  A
C375        H381   1.083       .  S
C376        C377   1.407       .  A
C377        C378   1.403       .  A
C377        H382   1.083       .  S
C378        C379   1.409       .  A
C378        H383   1.083       .  S
C379        C380   1.407       .  A
C380        H384   1.083       .  S
C385        C386   1.407       .  A
C385        C390   1.403       .  A
C385        H391   1.083       .  S
C386        C387   1.409       .  A
C387        C388   1.403       .  A
C387        H392   1.083       .  S
C388        C389   1.407       .  A
C388        H393   1.083       .  S
C389        C390   1.409       .  A
C390        H394   1.083       .  S
C395        C396   1.403       .  A
C395        C400   1.397       .  A
C395        H401   1.083       .  S
C396        C397   1.408       .  A
C397        C398   1.397       .  A
C397        H402   1.083       .  S
C398        C399   1.403       .  A
C398        H403   1.083       .  S
C399        C400   1.408       .  A
C400        H404   1.083       .  S
C405        C406   1.412       .  A
C405        C410   1.393       .  A
C405        H411   1.083       .  S
C406        C407   1.397       .  A
C407        C408   1.393       .  A
C407        H412   1.083       .  S
C408        C409   1.412       .  A
C408        H413   1.083       .  S
C409        C410   1.397       .  A
C410        H414   1.083       .  S
O415        C423   1.252       .  A
O415       Co435   1.932   1_565  S
O416        C424   1.257       .  A
O417        C425   1.241       .  A
O417       Co989   1.959   1_455  S
O418        C426   1.272       .  A
O419        C425   1.257       .  A
O420        C426   1.252       .  A
O421        C424   1.241       .  A
O421       Co852   1.959   1_455  S
O422        C423   1.272       .  A
O422       Co437   2.017       .  S
C423        C544   1.470       .  S
C424        C474   1.488       .  S
C425        C494   1.488       .  S
C426        C504   1.470       .  S
O427        C440   1.264       .  A
O428        C441   1.297       .  A
O429        C442   1.255       .  A
O430        C443   1.273       .  A
O430       Co990   1.900   1_455  S
O431        C443   1.297       .  A
O431       Co436   2.072       .  S
O432        C442   1.264       .  A
O433        C440   1.255       .  A
O433       Co438   1.983       .  S
O434        C441   1.273       .  A
O434       Co851   1.900   1_455  S
Co435       O439   2.128       .  S
Co436       O577   2.265   1_456  S
Co437       O969   1.959       .  S
Co437       O848   1.900       .  S
Co437       O439   1.932   1_565  S
Co438       O835   1.959   1_556  S
Co438       O982   1.900       .  S
O439       Co574   2.265       .  S
C440        C524   1.492       .  S
C441        C534   1.480       .  S
C442        C517   1.492       .  S
C443        C487   1.480       .  S
O444        C452   1.264       .  A
O444       Co464   2.018       .  S
O445        C453   1.297       .  A
O445       Co465   2.072       .  S
O446        C454   1.273       .  A
O446       Co466   1.900       .  S
O447        C455   1.255       .  A
O447       Co467   1.983       .  S
O448        C454   1.297       .  A
O448       Co465   2.072       .  S
O449        C455   1.264       .  A
O449       Co464   2.018       .  S
O450        C453   1.273       .  A
O450       Co467   1.900       .  S
O451        C452   1.255       .  A
O451       Co466   1.983       .  S
C452        C514   1.492       .  S
C453        C484   1.480       .  S
C454        C537   1.480       .  S
C455        C527   1.492       .  S
O456        C469   1.252       .  A
O456       Co464   1.932       .  S
O457        C470   1.257       .  A
O457       Co465   2.022       .  S
O458        C471   1.272       .  A
O458       Co466   2.017       .  S
O459        C472   1.241       .  A
O459       Co467   1.959       .  S
O460        C472   1.257       .  A
O460       Co465   2.022       .  S
O461        C471   1.252       .  A
O461       Co464   1.932       .  S
O462        C469   1.272       .  A
O462       Co467   2.017       .  S
O463        C470   1.241       .  A
O463       Co466   1.959       .  S
Co464       O468   2.128       .  S
Co465       O468   2.265       .  S
Co466       O468   1.932       .  S
Co467       O468   1.932       .  S
C469        C507   1.470       .  S
C470        C497   1.488       .  S
C471        C547   1.470       .  S
C472        C477   1.488       .  S
C473        C474   1.404       .  A
C473        C478   1.402       .  A
C473        H479   1.083       .  S
C474        C475   1.409       .  A
C475        C476   1.402       .  A
C475        H480   1.080       .  S
C476        C477   1.404       .  A
C476        H481   1.083       .  S
C477        C478   1.409       .  A
C478        H482   1.080       .  S
C483        C484   1.408       .  A
C483        C488   1.397       .  A
C483        H489   1.083       .  S
C484        C485   1.403       .  A
C485        C486   1.397       .  A
C485        H490   1.083       .  S
C486        C487   1.408       .  A
C486        H491   1.083       .  S
C487        C488   1.403       .  A
C488        H492   1.083       .  S
C493        C494   1.404       .  A
C493        C498   1.402       .  A
C493        H499   1.083       .  S
C494        C495   1.409       .  A
C495        C496   1.402       .  A
C495        H500   1.080       .  S
C496        C497   1.404       .  A
C496        H501   1.083       .  S
C497        C498   1.409       .  A
C498        H502   1.080       .  S
C503        C504   1.397       .  A
C503        C508   1.393       .  A
C503        H509   1.083       .  S
C504        C505   1.412       .  A
C505        C506   1.393       .  A
C505        H510   1.083       .  S
C506        C507   1.397       .  A
C506        H511   1.083       .  S
C507        C508   1.412       .  A
C508        H512   1.083       .  S
C513        C514   1.409       .  A
C513        C518   1.403       .  A
C513        H519   1.083       .  S
C514        C515   1.407       .  A
C515        C516   1.403       .  A
C515        H520   1.083       .  S
C516        C517   1.409       .  A
C516        H521   1.083       .  S
C517        C518   1.407       .  A
C518        H522   1.083       .  S
C523        C524   1.407       .  A
C523        C528   1.403       .  A
C523        H529   1.083       .  S
C524        C525   1.409       .  A
C525        C526   1.403       .  A
C525        H530   1.083       .  S
C526        C527   1.407       .  A
C526        H531   1.083       .  S
C527        C528   1.409       .  A
C528        H532   1.083       .  S
C533        C534   1.403       .  A
C533        C538   1.397       .  A
C533        H539   1.083       .  S
C534        C535   1.408       .  A
C535        C536   1.397       .  A
C535        H540   1.083       .  S
C536        C537   1.403       .  A
C536        H541   1.083       .  S
C537        C538   1.408       .  A
C538        H542   1.083       .  S
C543        C544   1.412       .  A
C543        C548   1.393       .  A
C543        H549   1.083       .  S
C544        C545   1.397       .  A
C545        C546   1.393       .  A
C545        H550   1.083       .  S
C546        C547   1.412       .  A
C546        H551   1.083       .  S
C547        C548   1.397       .  A
C548        H552   1.083       .  S
O553        C561   1.252       .  A
O553       Co573   1.932       .  S
O554        C562   1.257       .  A
O554       Co712   2.022   1_554  S
O555        C563   1.241       .  A
O556        C564   1.272       .  A
O556       Co714   2.017   1_554  S
O557        C563   1.257       .  A
O557       Co988   2.022   1_554  S
O558        C564   1.252       .  A
O558       Co849   1.932       .  S
O559        C562   1.241       .  A
O560        C561   1.272       .  A
O560       Co575   2.017   1_554  S
C561        C682   1.470       .  S
C562        C612   1.488       .  S
C563        C632   1.488       .  S
C564        C642   1.470       .  S
O565        C578   1.264       .  A
O565       Co987   2.018       .  S
O566        C579   1.297       .  A
O566       Co850   2.072       .  S
O567        C580   1.255       .  A
O567       Co713   1.983       .  S
O568        C581   1.273       .  A
O569        C581   1.297       .  A
O569       Co574   2.072       .  S
O570        C580   1.264       .  A
O570       Co711   2.018       .  S
O571        C578   1.255       .  A
O571       Co576   1.983       .  S
O572        C579   1.273       .  A
Co573       O834   1.932       .  S
Co573       O979   2.018   1_554  S
Co573       O708   2.018   1_554  S
Co573       O577   2.128       .  S
Co574       O692   2.022       .  S
Co574       O971   2.022   1_545  S
Co574       O842   2.072   1_545  S
Co575       O705   1.983       .  S
Co575       O577   1.932   1_556  S
Co576       O694   2.017       .  S
Co576       O991   1.932       .  S
O577       Co990   1.932   1_554  S
C578        C662   1.492       .  S
C579        C672   1.480       .  S
C580        C655   1.492       .  S
C581        C625   1.480       .  S
O582        C590   1.264       .  A
O582       Co602   2.018       .  S
O583        C591   1.297       .  A
O583       Co603   2.072       .  S
O584        C592   1.273       .  A
O584       Co604   1.900       .  S
O585        C593   1.255       .  A
O585       Co605   1.983       .  S
O586        C592   1.297       .  A
O586       Co603   2.072       .  S
O587        C593   1.264       .  A
O587       Co602   2.018       .  S
O588        C591   1.273       .  A
O588       Co605   1.900       .  S
O589        C590   1.255       .  A
O589       Co604   1.983       .  S
C590        C652   1.492       .  S
C591        C622   1.480       .  S
C592        C675   1.480       .  S
C593        C665   1.492       .  S
O594        C607   1.252       .  A
O594       Co602   1.932       .  S
O595        C608   1.257       .  A
O595       Co603   2.022       .  S
O596        C609   1.272       .  A
O596       Co604   2.017       .  S
O597        C610   1.241       .  A
O597       Co605   1.959       .  S
O598        C610   1.257       .  A
O598       Co603   2.022       .  S
O599        C609   1.252       .  A
O599       Co602   1.932       .  S
O600        C607   1.272       .  A
O600       Co605   2.017       .  S
O601        C608   1.241       .  A
O601       Co604   1.959       .  S
Co602       O606   2.128       .  S
Co603       O606   2.265       .  S
Co604       O606   1.932       .  S
Co605       O606   1.932       .  S
C607        C645   1.470       .  S
C608        C635   1.488       .  S
C609        C685   1.470       .  S
C610        C615   1.488       .  S
C611        C612   1.404       .  A
C611        C616   1.402       .  A
C611        H617   1.083       .  S
C612        C613   1.409       .  A
C613        C614   1.402       .  A
C613        H618   1.080       .  S
C614        C615   1.404       .  A
C614        H619   1.083       .  S
C615        C616   1.409       .  A
C616        H620   1.080       .  S
C621        C622   1.408       .  A
C621        C626   1.397       .  A
C621        H627   1.083       .  S
C622        C623   1.403       .  A
C623        C624   1.397       .  A
C623        H628   1.083       .  S
C624        C625   1.408       .  A
C624        H629   1.083       .  S
C625        C626   1.403       .  A
C626        H630   1.083       .  S
C631        C632   1.404       .  A
C631        C636   1.402       .  A
C631        H637   1.083       .  S
C632        C633   1.409       .  A
C633        C634   1.402       .  A
C633        H638   1.080       .  S
C634        C635   1.404       .  A
C634        H639   1.083       .  S
C635        C636   1.409       .  A
C636        H640   1.080       .  S
C641        C642   1.397       .  A
C641        C646   1.393       .  A
C641        H647   1.083       .  S
C642        C643   1.412       .  A
C643        C644   1.393       .  A
C643        H648   1.083       .  S
C644        C645   1.397       .  A
C644        H649   1.083       .  S
C645        C646   1.412       .  A
C646        H650   1.083       .  S
C651        C652   1.409       .  A
C651        C656   1.403       .  A
C651        H657   1.083       .  S
C652        C653   1.407       .  A
C653        C654   1.403       .  A
C653        H658   1.083       .  S
C654        C655   1.409       .  A
C654        H659   1.083       .  S
C655        C656   1.407       .  A
C656        H660   1.083       .  S
C661        C662   1.407       .  A
C661        C666   1.403       .  A
C661        H667   1.083       .  S
C662        C663   1.409       .  A
C663        C664   1.403       .  A
C663        H668   1.083       .  S
C664        C665   1.407       .  A
C664        H669   1.083       .  S
C665        C666   1.409       .  A
C666        H670   1.083       .  S
C671        C672   1.403       .  A
C671        C676   1.397       .  A
C671        H677   1.083       .  S
C672        C673   1.408       .  A
C673        C674   1.397       .  A
C673        H678   1.083       .  S
C674        C675   1.403       .  A
C674        H679   1.083       .  S
C675        C676   1.408       .  A
C676        H680   1.083       .  S
C681        C682   1.412       .  A
C681        C686   1.393       .  A
C681        H687   1.083       .  S
C682        C683   1.397       .  A
C683        C684   1.393       .  A
C683        H688   1.083       .  S
C684        C685   1.412       .  A
C684        H689   1.083       .  S
C685        C686   1.397       .  A
C686        H690   1.083       .  S
O691        C699   1.252       .  A
O691       Co711   1.932       .  S
O692        C700   1.257       .  A
O693        C701   1.241       .  A
O694        C702   1.272       .  A
O695        C701   1.257       .  A
O695       Co850   2.022       .  S
O696        C702   1.252       .  A
O696       Co987   1.932       .  S
O697        C700   1.241       .  A
O698        C699   1.272       .  A
O698       Co713   2.017       .  S
C699        C820   1.470       .  S
C700        C750   1.488       .  S
C701        C770   1.488       .  S
C702        C780   1.470       .  S
O703        C716   1.264       .  A
O703       Co849   2.018   1_556  S
O704        C717   1.297       .  A
O704       Co988   2.072       .  S
O705        C718   1.255       .  A
O706        C719   1.273       .  A
O707        C719   1.297       .  A
O707       Co712   2.072       .  S
O708        C718   1.264       .  A
O709        C716   1.255       .  A
O709       Co714   1.983       .  S
O710        C717   1.273       .  A
Co711       O972   1.932       .  S
Co711       O841   2.018       .  S
Co711       O715   2.128       .  S
Co712       O833   2.022   1_546  S
Co712       O980   2.072   1_545  S
Co713       O715   1.932       .  S
Co714       O853   1.932   1_556  S
O715       Co852   1.932       .  S
C716        C800   1.492       .  S
C717        C810   1.480       .  S
C718        C793   1.492       .  S
C719        C763   1.480       .  S
O720        C728   1.264       .  A
O720       Co740   2.018       .  S
O721        C729   1.297       .  A
O721       Co741   2.072       .  S
O722        C730   1.273       .  A
O722       Co742   1.900       .  S
O723        C731   1.255       .  A
O723       Co743   1.983       .  S
O724        C730   1.297       .  A
O724       Co741   2.072       .  S
O725        C731   1.264       .  A
O725       Co740   2.018       .  S
O726        C729   1.273       .  A
O726       Co743   1.900       .  S
O727        C728   1.255       .  A
O727       Co742   1.983       .  S
C728        C790   1.492       .  S
C729        C760   1.480       .  S
C730        C813   1.480       .  S
C731        C803   1.492       .  S
O732        C745   1.252       .  A
O732       Co740   1.932       .  S
O733        C746   1.257       .  A
O733       Co741   2.022       .  S
O734        C747   1.272       .  A
O734       Co742   2.017       .  S
O735        C748   1.241       .  A
O735       Co743   1.959       .  S
O736        C748   1.257       .  A
O736       Co741   2.022       .  S
O737        C747   1.252       .  A
O737       Co740   1.932       .  S
O738        C745   1.272       .  A
O738       Co743   2.017       .  S
O739        C746   1.241       .  A
O739       Co742   1.959       .  S
Co740       O744   2.128       .  S
Co741       O744   2.265       .  S
Co742       O744   1.932       .  S
Co743       O744   1.932       .  S
C745        C783   1.470       .  S
C746        C773   1.488       .  S
C747        C823   1.470       .  S
C748        C753   1.488       .  S
C749        C750   1.404       .  A
C749        C754   1.402       .  A
C749        H755   1.083       .  S
C750        C751   1.409       .  A
C751        C752   1.402       .  A
C751        H756   1.080       .  S
C752        C753   1.404       .  A
C752        H757   1.083       .  S
C753        C754   1.409       .  A
C754        H758   1.080       .  S
C759        C760   1.408       .  A
C759        C764   1.397       .  A
C759        H765   1.083       .  S
C760        C761   1.403       .  A
C761        C762   1.397       .  A
C761        H766   1.083       .  S
C762        C763   1.408       .  A
C762        H767   1.083       .  S
C763        C764   1.403       .  A
C764        H768   1.083       .  S
C769        C770   1.404       .  A
C769        C774   1.402       .  A
C769        H775   1.083       .  S
C770        C771   1.409       .  A
C771        C772   1.402       .  A
C771        H776   1.080       .  S
C772        C773   1.404       .  A
C772        H777   1.083       .  S
C773        C774   1.409       .  A
C774        H778   1.080       .  S
C779        C780   1.397       .  A
C779        C784   1.393       .  A
C779        H785   1.083       .  S
C780        C781   1.412       .  A
C781        C782   1.393       .  A
C781        H786   1.083       .  S
C782        C783   1.397       .  A
C782        H787   1.083       .  S
C783        C784   1.412       .  A
C784        H788   1.083       .  S
C789        C790   1.409       .  A
C789        C794   1.403       .  A
C789        H795   1.083       .  S
C790        C791   1.407       .  A
C791        C792   1.403       .  A
C791        H796   1.083       .  S
C792        C793   1.409       .  A
C792        H797   1.083       .  S
C793        C794   1.407       .  A
C794        H798   1.083       .  S
C799        C800   1.407       .  A
C799        C804   1.403       .  A
C799        H805   1.083       .  S
C800        C801   1.409       .  A
C801        C802   1.403       .  A
C801        H806   1.083       .  S
C802        C803   1.407       .  A
C802        H807   1.083       .  S
C803        C804   1.409       .  A
C804        H808   1.083       .  S
C809        C810   1.403       .  A
C809        C814   1.397       .  A
C809        H815   1.083       .  S
C810        C811   1.408       .  A
C811        C812   1.397       .  A
C811        H816   1.083       .  S
C812        C813   1.403       .  A
C812        H817   1.083       .  S
C813        C814   1.408       .  A
C814        H818   1.083       .  S
C819        C820   1.412       .  A
C819        C824   1.393       .  A
C819        H825   1.083       .  S
C820        C821   1.397       .  A
C821        C822   1.393       .  A
C821        H826   1.083       .  S
C822        C823   1.412       .  A
C822        H827   1.083       .  S
C823        C824   1.397       .  A
C824        H828   1.083       .  S
O829        C837   1.252       .  A
O829       Co849   1.932   1_565  S
O830        C838   1.257       .  A
O830       Co988   2.022   1_554  S
O831        C839   1.241       .  A
O832        C840   1.272       .  A
O832       Co990   2.017   1_554  S
O833        C839   1.257       .  A
O834        C840   1.252       .  A
O835        C838   1.241       .  A
O836        C837   1.272       .  A
O836       Co851   2.017   1_554  S
C837        C958   1.470       .  S
C838        C888   1.488       .  S
C839        C908   1.488       .  S
C840        C918   1.470       .  S
O841        C854   1.264       .  A
O842        C855   1.297       .  A
O843        C856   1.255       .  A
O843       Co989   1.983       .  S
O844        C857   1.273       .  A
O845        C857   1.297       .  A
O845       Co850   2.072       .  S
O846        C856   1.264       .  A
O846       Co987   2.018   1_565  S
O847        C854   1.255       .  A
O847       Co852   1.983       .  S
O848        C855   1.273       .  A
Co849       O984   2.018   1_544  S
Co849       O853   2.128       .  S
Co850       O968   2.022       .  S
Co851       O981   1.983       .  S
Co851       O853   1.932   1_566  S
Co852       O970   2.017       .  S
C854        C938   1.492       .  S
C855        C948   1.480       .  S
C856        C931   1.492       .  S
C857        C901   1.480       .  S
O858        C866   1.264       .  A
O858       Co878   2.018       .  S
O859        C867   1.297       .  A
O859       Co879   2.072       .  S
O860        C868   1.273       .  A
O860       Co880   1.900       .  S
O861        C869   1.255       .  A
O861       Co881   1.983       .  S
O862        C868   1.297       .  A
O862       Co879   2.072       .  S
O863        C869   1.264       .  A
O863       Co878   2.018       .  S
O864        C867   1.273       .  A
O864       Co881   1.900       .  S
O865        C866   1.255       .  A
O865       Co880   1.983       .  S
C866        C928   1.492       .  S
C867        C898   1.480       .  S
C868        C951   1.480       .  S
C869        C941   1.492       .  S
O870        C883   1.252       .  A
O870       Co878   1.932       .  S
O871        C884   1.257       .  A
O871       Co879   2.022       .  S
O872        C885   1.272       .  A
O872       Co880   2.017       .  S
O873        C886   1.241       .  A
O873       Co881   1.959       .  S
O874        C886   1.257       .  A
O874       Co879   2.022       .  S
O875        C885   1.252       .  A
O875       Co878   1.932       .  S
O876        C883   1.272       .  A
O876       Co881   2.017       .  S
O877        C884   1.241       .  A
O877       Co880   1.959       .  S
Co878       O882   2.128       .  S
Co879       O882   2.265       .  S
Co880       O882   1.932       .  S
Co881       O882   1.932       .  S
C883        C921   1.470       .  S
C884        C911   1.488       .  S
C885        C961   1.470       .  S
C886        C891   1.488       .  S
C887        C888   1.404       .  A
C887        C892   1.402       .  A
C887        H893   1.083       .  S
C888        C889   1.409       .  A
C889        C890   1.402       .  A
C889        H894   1.080       .  S
C890        C891   1.404       .  A
C890        H895   1.083       .  S
C891        C892   1.409       .  A
C892        H896   1.080       .  S
C897        C898   1.408       .  A
C897        C902   1.397       .  A
C897        H903   1.083       .  S
C898        C899   1.403       .  A
C899        C900   1.397       .  A
C899        H904   1.083       .  S
C900        C901   1.408       .  A
C900        H905   1.083       .  S
C901        C902   1.403       .  A
C902        H906   1.083       .  S
C907        C908   1.404       .  A
C907        C912   1.402       .  A
C907        H913   1.083       .  S
C908        C909   1.409       .  A
C909        C910   1.402       .  A
C909        H914   1.080       .  S
C910        C911   1.404       .  A
C910        H915   1.083       .  S
C911        C912   1.409       .  A
C912        H916   1.080       .  S
C917        C918   1.397       .  A
C917        C922   1.393       .  A
C917        H923   1.083       .  S
C918        C919   1.412       .  A
C919        C920   1.393       .  A
C919        H924   1.083       .  S
C920        C921   1.397       .  A
C920        H925   1.083       .  S
C921        C922   1.412       .  A
C922        H926   1.083       .  S
C927        C928   1.409       .  A
C927        C932   1.403       .  A
C927        H933   1.083       .  S
C928        C929   1.407       .  A
C929        C930   1.403       .  A
C929        H934   1.083       .  S
C930        C931   1.409       .  A
C930        H935   1.083       .  S
C931        C932   1.407       .  A
C932        H936   1.083       .  S
C937        C938   1.407       .  A
C937        C942   1.403       .  A
C937        H943   1.083       .  S
C938        C939   1.409       .  A
C939        C940   1.403       .  A
C939        H944   1.083       .  S
C940        C941   1.407       .  A
C940        H945   1.083       .  S
C941        C942   1.409       .  A
C942        H946   1.083       .  S
C947        C948   1.403       .  A
C947        C952   1.397       .  A
C947        H953   1.083       .  S
C948        C949   1.408       .  A
C949        C950   1.397       .  A
C949        H954   1.083       .  S
C950        C951   1.403       .  A
C950        H955   1.083       .  S
C951        C952   1.408       .  A
C952        H956   1.083       .  S
C957        C958   1.412       .  A
C957        C962   1.393       .  A
C957        H963   1.083       .  S
C958        C959   1.397       .  A
C959        C960   1.393       .  A
C959        H964   1.083       .  S
C960        C961   1.412       .  A
C960        H965   1.083       .  S
C961        C962   1.397       .  A
C962        H966   1.083       .  S
O967        C975   1.252       .  A
O967       Co987   1.932   1_565  S
O968        C976   1.257       .  A
O969        C977   1.241       .  A
O970        C978   1.272       .  A
O971        C977   1.257       .  A
O972        C978   1.252       .  A
O973        C976   1.241       .  A
O974        C975   1.272       .  A
O974       Co989   2.017       .  S
C975       C1096   1.470       .  S
C976       C1026   1.488       .  S
C977       C1046   1.488       .  S
C978       C1056   1.470       .  S
O979        C992   1.264       .  A
O980        C993   1.297       .  A
O981        C994   1.255       .  A
O982        C995   1.273       .  A
O983        C995   1.297       .  A
O983       Co988   2.072       .  S
O984        C994   1.264       .  A
O985        C992   1.255       .  A
O985       Co990   1.983       .  S
O986        C993   1.273       .  A
Co987       O991   2.128       .  S
Co989       O991   1.932   1_565  S
C992       C1076   1.492       .  S
C993       C1086   1.480       .  S
C994       C1069   1.492       .  S
C995       C1039   1.480       .  S
O996       C1004   1.264       .  A
O996      Co1016   2.018       .  S
O997       C1005   1.297       .  A
O997      Co1017   2.072       .  S
O998       C1006   1.273       .  A
O998      Co1018   1.900       .  S
O999       C1007   1.255       .  A
O999      Co1019   1.983       .  S
O1000      C1006   1.297       .  A
O1000     Co1017   2.072       .  S
O1001      C1007   1.264       .  A
O1001     Co1016   2.018       .  S
O1002      C1005   1.273       .  A
O1002     Co1019   1.900       .  S
O1003      C1004   1.255       .  A
O1003     Co1018   1.983       .  S
C1004      C1066   1.492       .  S
C1005      C1036   1.480       .  S
C1006      C1089   1.480       .  S
C1007      C1079   1.492       .  S
O1008      C1021   1.252       .  A
O1008     Co1016   1.932       .  S
O1009      C1022   1.257       .  A
O1009     Co1017   2.022       .  S
O1010      C1023   1.272       .  A
O1010     Co1018   2.017       .  S
O1011      C1024   1.241       .  A
O1011     Co1019   1.959       .  S
O1012      C1024   1.257       .  A
O1012     Co1017   2.022       .  S
O1013      C1023   1.252       .  A
O1013     Co1016   1.932       .  S
O1014      C1021   1.272       .  A
O1014     Co1019   2.017       .  S
O1015      C1022   1.241       .  A
O1015     Co1018   1.959       .  S
Co1016     O1020   2.128       .  S
Co1017     O1020   2.265       .  S
Co1018     O1020   1.932       .  S
Co1019     O1020   1.932       .  S
C1021      C1059   1.470       .  S
C1022      C1049   1.488       .  S
C1023      C1099   1.470       .  S
C1024      C1029   1.488       .  S
C1025      C1026   1.404       .  A
C1025      C1030   1.402       .  A
C1025      H1031   1.083       .  S
C1026      C1027   1.409       .  A
C1027      C1028   1.402       .  A
C1027      H1032   1.080       .  S
C1028      C1029   1.404       .  A
C1028      H1033   1.083       .  S
C1029      C1030   1.409       .  A
C1030      H1034   1.080       .  S
C1035      C1036   1.408       .  A
C1035      C1040   1.397       .  A
C1035      H1041   1.083       .  S
C1036      C1037   1.403       .  A
C1037      C1038   1.397       .  A
C1037      H1042   1.083       .  S
C1038      C1039   1.408       .  A
C1038      H1043   1.083       .  S
C1039      C1040   1.403       .  A
C1040      H1044   1.083       .  S
C1045      C1046   1.404       .  A
C1045      C1050   1.402       .  A
C1045      H1051   1.083       .  S
C1046      C1047   1.409       .  A
C1047      C1048   1.402       .  A
C1047      H1052   1.080       .  S
C1048      C1049   1.404       .  A
C1048      H1053   1.083       .  S
C1049      C1050   1.409       .  A
C1050      H1054   1.080       .  S
C1055      C1056   1.397       .  A
C1055      C1060   1.393       .  A
C1055      H1061   1.083       .  S
C1056      C1057   1.412       .  A
C1057      C1058   1.393       .  A
C1057      H1062   1.083       .  S
C1058      C1059   1.397       .  A
C1058      H1063   1.083       .  S
C1059      C1060   1.412       .  A
C1060      H1064   1.083       .  S
C1065      C1066   1.409       .  A
C1065      C1070   1.403       .  A
C1065      H1071   1.083       .  S
C1066      C1067   1.407       .  A
C1067      C1068   1.403       .  A
C1067      H1072   1.083       .  S
C1068      C1069   1.409       .  A
C1068      H1073   1.083       .  S
C1069      C1070   1.407       .  A
C1070      H1074   1.083       .  S
C1075      C1076   1.407       .  A
C1075      C1080   1.403       .  A
C1075      H1081   1.083       .  S
C1076      C1077   1.409       .  A
C1077      C1078   1.403       .  A
C1077      H1082   1.083       .  S
C1078      C1079   1.407       .  A
C1078      H1083   1.083       .  S
C1079      C1080   1.409       .  A
C1080      H1084   1.083       .  S
C1085      C1086   1.403       .  A
C1085      C1090   1.397       .  A
C1085      H1091   1.083       .  S
C1086      C1087   1.408       .  A
C1087      C1088   1.397       .  A
C1087      H1092   1.083       .  S
C1088      C1089   1.403       .  A
C1088      H1093   1.083       .  S
C1089      C1090   1.408       .  A
C1090      H1094   1.083       .  S
C1095      C1096   1.412       .  A
C1095      C1100   1.393       .  A
C1095      H1101   1.083       .  S
C1096      C1097   1.397       .  A
C1097      C1098   1.393       .  A
C1097      H1102   1.083       .  S
C1098      C1099   1.412       .  A
C1098      H1103   1.083       .  S
C1099      C1100   1.397       .  A
C1100      H1104   1.083       .  S
