geometry optimzed in LAMMPS
_audit_creation_date              2020-11-30 
_audit_creation_method            'lammps2cif' 
_symmetry_space_group_name_H-M    'P1' 
_symmetry_Int_Tables_number       1 
_symmetry_cell_setting            triclinic 
loop_ 
_symmetry_equiv_pos_as_xyz 
  x,y,z 
_cell_length_a                    38.65060531 
_cell_length_b                    57.67251590236427 
_cell_length_c                    33.55262182787229 
_cell_angle_alpha                 87.48177052331313 
_cell_angle_beta                  86.69876973525481 
_cell_angle_gamma                 89.69983652993811 
loop_ 
_atom_site_label 
_atom_site_type_symbol 
_atom_site_fract_x 
_atom_site_fract_y 
_atom_site_fract_z 
_atom_site_charge 
O1          O  0.25777560  0.88375687  0.07506860    -0.55600
C2          C  0.35309953  0.85256602  0.08688171     0.77000
O3          O  0.29093001  0.87193612  0.00254335    -0.56800
C4          C  0.22802279  0.87477759  0.07403439     0.77000
C5          C  0.26357519  0.80530143  0.14007022     0.79400
Cd6        Cd  0.28187264  0.85303958  0.11929449     1.37500
O7          O  0.32873291  0.84914981  0.06401606    -0.55600
O8          O  0.28080830  0.81193890  0.10856742    -0.54400
C9          C  0.29087145  0.89056989  0.98079439     0.79400
O10         O  0.26048332  0.81663365  0.99450038    -0.56800
O11         O  0.34247366  0.84652860  0.96017009    -0.55200
O12         O  0.22479515  0.85439841  0.08922460    -0.55200
O13         O  0.25965463  0.88585329  0.15747237    -0.48800
O14         O  0.63139600  0.84727241  0.07717774    -0.55600
C15         C  0.73643889  0.86601085  0.09254144     0.77000
O16         O  0.67159394  0.87630786  0.02052329    -0.56800
C17         C  0.60587800  0.83993556  0.09971465     0.77000
C18         C  0.69059511  0.80562442  0.16656838     0.79400
Cd19       Cd  0.67147416  0.84985663  0.13135350     1.37500
O20         O  0.71271009  0.85831134  0.07231134    -0.55600
O21         O  0.68408725  0.80844397  0.13014546    -0.54400
C22         C  0.64996172  0.89280615  0.16621073     0.79400
O23         O  0.69210292  0.82383198  0.01627635    -0.56800
O24         O  0.73064520  0.86511719  0.12997570    -0.55200
O25         O  0.61154611  0.83590580  0.13622544    -0.55200
O26         O  0.64280326  0.88785884  0.13136079    -0.54400
C27         C  0.00733627  0.96632085  0.03586008     0.04500
C28         C  0.00657030  0.99082924  0.03067589     0.04500
C29         C  0.97509385  0.00233568  0.02587284    -0.16000
C30         C  0.94332042  0.99046680  0.02853496     0.04500
C31         C  0.94380157  0.96569586  0.03197698     0.04500
C32         C  0.97593559  0.95421616  0.03574578    -0.16000
H33         H  0.97649264  0.93553135  0.03925561     0.06500
H34         H  0.97524724  0.02105361  0.02222540     0.06500
O35         O  0.33621658  0.09537981  0.04552162    -0.55600
C36         C  0.22868189  0.07318712  0.07159577     0.77000
O37         O  0.29400977  0.07140138  0.99805636    -0.56800
C38         C  0.35710457  0.10577857  0.06652327     0.77000
C39         C  0.26700139  0.13859459  0.12515878     0.79400
Cd40       Cd  0.28999356  0.09338233  0.10120680     1.37500
O41         O  0.24679087  0.08753425  0.04959948    -0.55600
O42         O  0.26029007  0.13039097  0.09211611    -0.54400
C43         C  0.31344887  0.05700895  0.97999400     0.79400
O44         O  0.27744699  0.12948768  0.99108485    -0.56800
O45         O  0.23835701  0.06905349  0.10657275    -0.55200
O46         O  0.34568181  0.11118074  0.10091217    -0.55200
O47         O  0.32017992  0.05630398  0.10737239    -0.54400
O48         O  0.64420393  0.07515892  0.18012696    -0.55600
C49         C  0.69134189  0.14525505  0.16991480     0.77000
O50         O  0.70946668  0.08109338  0.23919439    -0.56800
C51         C  0.66852406  0.06040295  0.17765766     0.77000
C52         C  0.60767100  0.10617091  0.09710262     0.79400
Cd53       Cd  0.67398920  0.10323678  0.13180060     1.37500
O54         O  0.69753721  0.12549202  0.18587224    -0.55600
O55         O  0.61153447  0.09907617  0.13274319    -0.54400
C56         C  0.73956472  0.08755899  0.24678912     0.79400
O57         O  0.63948011  0.11624422  0.23471439    -0.56800
O58         O  0.67624393  0.14531825  0.13746045    -0.55200
O59         O  0.69636649  0.06726749  0.15954364    -0.55200
O60         O  0.73324130  0.10554436  0.09902942    -0.54400
O61         O  0.22589954  0.56624200  0.18042282    -0.55600
C62         C  0.13086099  0.59545345  0.18360844     0.77000
O63         O  0.14731604  0.57221440  0.09655292    -0.56800
C64         C  0.25423679  0.57717702  0.17686003     0.77000
C65         C  0.19210733  0.64444625  0.09049448     0.79400
Cd66       Cd  0.18319177  0.59976248  0.05418974     1.37500
O67         O  0.15903053  0.60314443  0.16701600    -0.55600
O68         O  0.18741255  0.63466096  0.23088008    -0.54400
C69         C  0.17283554  0.56019558  0.10761378     0.79400
O70         O  0.20144716  0.62556996  0.10735532    -0.56800
O71         O  0.12222338  0.59367620  0.04439152    -0.55200
O72         O  0.24075253  0.60197674  0.01571450    -0.55200
O73         O  0.20253510  0.56894522  0.09969680    -0.54400
O74         O  0.85584281  0.59718858  0.94600229    -0.55600
C75         C  0.74526811  0.58507561  0.97570844     0.77000
O76         O  0.82073473  0.57781026  0.06631834    -0.56800
C77         C  0.87935620  0.60726086  0.96363523     0.77000
C78         C  0.79235993  0.64787086  0.01750761     0.79400
Cd79       Cd  0.81122480  0.60066324  0.00197311     1.37500
O80         O  0.77143981  0.58762883  0.95139784    -0.55600
O81         O  0.79784945  0.64052273  0.98264848    -0.54400
C82         C  0.82825701  0.55918012  0.04899263     0.79400
O83         O  0.79652099  0.63328048  0.04642320    -0.56800
O84         O  0.74920870  0.59146365  0.01069355    -0.55200
O85         O  0.87058960  0.61539748  0.99719548    -0.55200
O86         O  0.82869641  0.56032997  0.01130298    -0.54400
C87         C  0.47456532  0.49115750  0.10629274     0.04500
C88         C  0.47314604  0.46663585  0.10823850     0.04500
C89         C  0.50393352  0.45386908  0.10833182    -0.16000
C90         C  0.53630263  0.46469046  0.10933858     0.04500
C91         C  0.53829408  0.48950875  0.10699086     0.04500
C92         C  0.50704177  0.50190283  0.10221440    -0.16000
H93         H  0.50754042  0.52084511  0.09693120     0.06500
H94         H  0.50242595  0.43502428  0.11112782     0.06500
O95         O  0.14584070  0.37037112  0.18733054    -0.55600
C96         C  0.25557521  0.37736027  0.19258668     0.77000
O97         O  0.19415631  0.38133532  0.11639657    -0.56800
C98         C  0.12850269  0.34291155  0.02395840     0.77000
C99         C  0.21069964  0.30656968  0.10200978     0.79400
Cd100      Cd  0.19013183  0.35108255  0.06675035     1.37500
O101        O  0.23409335  0.36772213  0.17167408    -0.55600
O102        O  0.21956087  0.31349286  0.06661527    -0.54400
C103        C  0.16622237  0.39157138  0.10879807     0.79400
O104        O  0.19159545  0.32029697  0.12219895    -0.56800
O105        O  0.24833867  0.36841930  0.06353099    -0.55200
O106        O  0.13736515  0.32922748  0.05218118    -0.55200
O107        O  0.14753491  0.38154339  0.08531294    -0.54400
O108        O  0.85994346  0.34520137  0.03009176    -0.55600
C109        C  0.73967498  0.37458417  0.98400249     0.77000
O110        O  0.81268323  0.38862340  0.17604480    -0.56800
C111        C  0.87438606  0.34741799  0.99533942     0.77000
C112        C  0.77985418  0.30844151  0.02779267     0.79400
Cd113      Cd  0.80196433  0.35566862  0.01523884     1.37500
O114        O  0.73972201  0.36214987  0.01610029    -0.55600
O115        O  0.78069249  0.32147192  0.05742802    -0.54400
C116        C  0.80934501  0.39621908  0.05961311     0.79400
O117        O  0.80232522  0.30631820  0.17229123    -0.56800
O118        O  0.76845589  0.37662127  0.96370372    -0.55200
O119        O  0.85483477  0.35376231  0.96749357    -0.55200
O120        O  0.81031158  0.37640091  0.07767041    -0.54400
C121        C  0.04227317  0.31870786  0.99671996     0.14900
C122        C  0.02439293  0.33904835  0.98512297     0.01800
C123        C  0.04289426  0.36005559  0.98075227     0.16800
C124        C  0.07760696  0.36098573  0.99070563     0.26200
C125        C  0.09439711  0.34100997  0.00598725    -0.40100
C126        C  0.07659223  0.31975860  0.00787022     0.33300
C127        C  0.98575576  0.33898970  0.98423367     0.01900
F128        F  0.02663653  0.38011577  0.97008238    -0.12400
F129        F  0.09197187  0.30006748  0.02189454    -0.12900
C130        C  0.96601124  0.32972348  0.01763486     0.16800
C131        C  0.92997259  0.33144870  0.01984463     0.26200
C132        C  0.91233758  0.34307329  0.98916707    -0.40000
C133        C  0.93181236  0.35162346  0.95487617     0.33200
C134        C  0.96821313  0.34955311  0.95239886     0.14900
F135        F  0.98170865  0.31995668  0.04947275    -0.12400
F136        F  0.91587113  0.36277274  0.92449272    -0.12900
F137        F  0.91241891  0.32205941  0.05285402    -0.15200
F138        F  0.98497691  0.37010514  0.08879174    -0.13800
F139        F  0.02587913  0.29788529  0.99915377    -0.13800
F140        F  0.09365416  0.38190941  0.98876837    -0.15200
C141        C  0.31634001  0.41751455  0.12876048     0.14900
C142        C  0.34772298  0.41392585  0.14756611     0.01800
C143        C  0.34880007  0.39705561  0.17909237     0.16800
C144        C  0.31886039  0.38517337  0.19331973     0.26200
C145        C  0.28738295  0.38903307  0.17521405    -0.40100
C146        C  0.28646173  0.40501964  0.14228285     0.33300
C147        C  0.37902298  0.42832461  0.13621682     0.01900
F148        F  0.37907766  0.39201515  0.19615751    -0.12400
F149        F  0.25626628  0.40957925  0.12471236    -0.12900
C150        C  0.36849127  0.44704845  0.98372767     0.16800
C151        C  0.39615374  0.46259873  0.97720767     0.26200
C152        C  0.44038122  0.45380248  0.11695736    -0.40000
C153        C  0.42382354  0.44258067  0.08704736     0.33200
C154        C  0.39316996  0.43007987  0.09654793     0.14900
F155        F  0.33932946  0.45394195  0.00454574    -0.12400
F156        F  0.43785825  0.44328374  0.04899324    -0.12900
F157        F  0.39212468  0.48373141  0.99253538    -0.15200
F158        F  0.37799291  0.41908421  0.06733435    -0.13800
F159        F  0.31419200  0.43380517  0.09851511    -0.13800
F160        F  0.32068752  0.36968991  0.22480526    -0.15200
C161        C  0.61076005  0.44866039  0.98619629     0.14900
C162        C  0.61552481  0.42902098  0.96298952     0.01800
C163        C  0.60381337  0.41760846  0.09341547     0.16800
C164        C  0.57599189  0.43267869  0.08729356     0.26200
C165        C  0.55476772  0.45639470  0.95816533    -0.40100
C166        C  0.58029250  0.46201055  0.98435158     0.33300
C167        C  0.64729493  0.41450733  0.96529042     0.01900
F168        F  0.61259132  0.40198109  0.06552854    -0.12400
F169        F  0.57574765  0.48055277  0.00761329    -0.12900
C170        C  0.64499523  0.39139784  0.98028648     0.16800
C171        C  0.67497139  0.37799103  0.98456569     0.26200
C172        C  0.70785119  0.38723317  0.97297143    -0.40000
C173        C  0.70997141  0.40998720  0.95599915     0.33200
C174        C  0.67997445  0.42357769  0.95254928     0.14900
F175        F  0.61370233  0.38205489  0.99211498    -0.12400
F176        F  0.74124418  0.41960339  0.94513147    -0.12900
F177        F  0.67187516  0.35603826  0.00068345    -0.15200
F178        F  0.68109010  0.41637307  0.07390864    -0.13800
F179        F  0.63540116  0.45459337  0.01107663    -0.13800
F180        F  0.55834714  0.43122596  0.05370198    -0.15200
C181        C  0.84729158  0.44714395  0.10777384     0.14900
C182        C  0.82291016  0.46451813  0.09857044     0.01800
C183        C  0.79152588  0.45813771  0.08298866     0.16800
C184        C  0.78617805  0.43530405  0.07285886     0.26200
C185        C  0.81137298  0.41820567  0.07983922    -0.40100
C186        C  0.84119950  0.42397781  0.09915811     0.33300
C187        C  0.83245417  0.48940966  0.09597672     0.01900
F188        F  0.76769355  0.47451972  0.07329393    -0.12400
F189        F  0.86602900  0.40773919  0.10565056    -0.12900
C190        C  0.85653054  0.49717181  0.06541210     0.16800
C191        C  0.85724807  0.52051899  0.05237063     0.26200
C192        C  0.83462098  0.53666814  0.07043323    -0.40000
C193        C  0.81386120  0.52939737  0.10450435     0.33200
C194        C  0.81225432  0.50583152  0.11666138     0.14900
F195        F  0.87660725  0.48172865  0.04511507    -0.12400
F196        F  0.79255536  0.53979888  0.94401200    -0.12900
F197        F  0.87834990  0.52704135  0.02010763    -0.15200
F198        F  0.78882780  0.49878868  0.14632487    -0.13800
F199        F  0.87812503  0.45287613  0.12193532    -0.13800
F200        F  0.75757114  0.43028107  0.05321013    -0.15200
C201        C  0.62026891  0.51328982  0.92544582     0.14900
C202        C  0.61948968  0.53544000  0.94176587     0.01800
C203        C  0.59665621  0.53980548  0.13075023     0.16800
C204        C  0.56835111  0.52491969  0.13074756     0.26200
C205        C  0.57083053  0.50350809  0.11156170    -0.40100
C206        C  0.58947510  0.50127351  0.92036681     0.33300
C207        C  0.65206439  0.54837045  0.94955798     0.01900
F208        F  0.59093129  0.56172123  0.14289011    -0.12400
F209        F  0.59191169  0.48128568  0.90096167    -0.12900
C210        C  0.68148818  0.54880640  0.92247755     0.16800
C211        C  0.71124922  0.56126439  0.93029318     0.26200
C212        C  0.71246582  0.57402473  0.96497557    -0.40000
C213        C  0.68298144  0.57402589  0.99159747     0.33200
C214        C  0.65389084  0.56071179  0.98483844     0.14900
F215        F  0.68766054  0.53872411  0.05919292    -0.12400
F216        F  0.68241750  0.58650149  0.02501358    -0.12900
F217        F  0.74496234  0.56276029  0.07330453    -0.15200
F218        F  0.62817461  0.55904682  0.01415219    -0.13800
F219        F  0.65069744  0.50244887  0.91603714    -0.13800
F220        F  0.53849524  0.53172840  0.15019185    -0.15200
C221        C  0.17222068  0.44732221  0.16342020     0.14900
C222        C  0.15327978  0.46247699  0.13894227     0.01800
C223        C  0.13357069  0.45325061  0.10951708     0.16800
C224        C  0.13539923  0.42960428  0.10214947     0.26200
C225        C  0.15728347  0.41477546  0.12382576    -0.40100
C226        C  0.17425404  0.42365914  0.15592303     0.33300
C227        C  0.15865572  0.48789628  0.13918039     0.01900
F228        F  0.11540799  0.46934564  0.27612052    -0.12400
F229        F  0.19408366  0.40973428  0.17895650    -0.12900
C230        C  0.19196244  0.49686413  0.12960001     0.16800
C231        C  0.19686730  0.52065939  0.12230411     0.26200
C232        C  0.16854448  0.53613432  0.12459734    -0.40000
C233        C  0.13537627  0.52720365  0.13595419     0.33200
C234        C  0.13051293  0.50329394  0.14322041     0.14900
F235        F  0.21938194  0.48235023  0.12354244    -0.12400
F236        F  0.10723396  0.54135194  0.13737573    -0.12900
F237        F  0.22882523  0.52812035  0.10875526    -0.15200
F238        F  0.09803252  0.49504512  0.15218145    -0.13800
F239        F  0.19038278  0.45571220  0.19309757    -0.13800
F240        F  0.11825150  0.42175015  0.07123225    -0.15200
C241        C  0.34565201  0.56919672  0.13009541     0.14900
C242        C  0.34832714  0.54483793  0.13043520     0.01800
C243        C  0.31954687  0.53143982  0.14427049     0.16800
C244        C  0.28907856  0.54206325  0.15882300     0.26200
C245        C  0.28617040  0.56644979  0.15875291    -0.40100
C246        C  0.31491230  0.57993383  0.14434963     0.33300
C247        C  0.38197402  0.53311391  0.12102364     0.01900
F248        F  0.32170693  0.50790909  0.14612107    -0.12400
F249        F  0.31361174  0.60344558  0.14494260    -0.12900
C250        C  0.39648481  0.54237469  0.96783907     0.16800
C251        C  0.42679551  0.52914908  0.96370138     0.26200
C252        C  0.44293135  0.50602859  0.11089165    -0.40000
C253        C  0.41600001  0.50423843  0.08504147     0.33200
C254        C  0.38550020  0.51728628  0.09031326     0.14900
F255        F  0.39458502  0.55939247  0.99460829    -0.12400
F256        F  0.41972195  0.48990221  0.05443781    -0.12900
F257        F  0.45330193  0.53374123  0.98698740    -0.15200
F258        F  0.35937577  0.51440450  0.06562408    -0.13800
F259        F  0.37302825  0.58255384  0.11650266    -0.13800
F260        F  0.26333368  0.52833938  0.17576569    -0.15200
C261        C  0.05856850  0.61962841  0.12205736     0.14900
C262        C  0.02521619  0.60119464  0.95123790     0.01800
C263        C  0.03140796  0.58520830  0.98286038     0.16800
C264        C  0.06337853  0.58447861  0.00005449     0.26200
C265        C  0.09731112  0.59777396  0.16463650    -0.40100
C266        C  0.09154423  0.61603258  0.13648866     0.33300
C267        C  0.98885369  0.60514944  0.94040233     0.01900
F268        F  0.00556612  0.57134572  0.99919577    -0.12400
F269        F  0.11709976  0.63136246  0.12504256    -0.12900
C270        C  0.97557289  0.59589783  0.10388764     0.16800
C271        C  0.93953540  0.59859870  0.10355899     0.26200
C272        C  0.91590763  0.60812642  0.94795802    -0.40000
C273        C  0.93636149  0.62760570  0.95404044     0.33200
C274        C  0.97254145  0.62621991  0.94981973     0.14900
F275        F  0.99106605  0.57783914  0.08524172    -0.12400
F276        F  0.92138258  0.64749964  0.96682486    -0.12900
F277        F  0.92081388  0.58286873  0.08496013    -0.15200
F278        F  0.99160004  0.64468097  0.95935275    -0.13800
F279        F  0.05297829  0.63816977  0.09688037    -0.13800
F280        F  0.06766913  0.56924569  0.03143263    -0.15200
C281        C  0.74145599  0.18827369  0.22681889     0.14900
C282        C  0.72990532  0.20946584  0.21005038     0.01800
C283        C  0.70266448  0.20940890  0.18412516     0.16800
C284        C  0.68896558  0.18853311  0.17267817     0.26200
C285        C  0.70220355  0.16717195  0.18702969    -0.40100
C286        C  0.72779359  0.16727349  0.21534250     0.33300
C287        C  0.74784956  0.23155164  0.21642447     0.01900
F288        F  0.69022034  0.22965249  0.16849882    -0.12400
F289        F  0.74087204  0.14711154  0.23048795    -0.12900
C290        C  0.78230812  0.23488959  0.20150509     0.16800
C291        C  0.79718216  0.25704669  0.20029707     0.26200
C292        C  0.76878016  0.28376015  0.03177462    -0.40000
C293        C  0.74771831  0.27517519  0.06481672     0.33200
C294        C  0.73450222  0.25249348  0.06552020     0.14900
F295        F  0.80051888  0.21712015  0.18510717    -0.12400
F296        F  0.73868545  0.28896049  0.09554156    -0.12900
F297        F  0.82947495  0.26021233  0.18279843    -0.15200
F298        F  0.71279122  0.24495640  0.09645166    -0.13800
F299        F  0.76643986  0.18791664  0.25367212    -0.13800
F300        F  0.66330339  0.18930698  0.14665322    -0.15200
C301        C  0.20865905  0.24682642  0.15484798     0.14900
C302        C  0.23849389  0.23650538  0.13716997     0.01800
C303        C  0.26142289  0.25039963  0.11256152     0.16800
C304        C  0.25284787  0.27340356  0.10226111     0.26200
C305        C  0.22184063  0.28338011  0.11778224    -0.40100
C306        C  0.20071593  0.27021462  0.14582440     0.33300
C307        C  0.24369495  0.21089741  0.13999502     0.01900
F308        F  0.29144813  0.24138534  0.09685756    -0.12400
F309        F  0.17132295  0.27949652  0.16262832    -0.12900
C310        C  0.22003008  0.19634397  0.12295124     0.16800
C311        C  0.22706063  0.17265415  0.11965144     0.26200
C312        C  0.25765594  0.16288706  0.13386772    -0.40000
C313        C  0.28075570  0.17722576  0.15237136     0.33200
C314        C  0.27383174  0.20105262  0.15534912     0.14900
F315        F  0.19091248  0.20532605  0.10743653    -0.12400
F316        F  0.28705393  0.16862854  0.03291645    -0.12900
F317        F  0.20424793  0.15929991  0.10165763    -0.15200
F318        F  0.27097766  0.21431408  0.04156682    -0.13800
F319        F  0.18673603  0.23402921  0.17996855    -0.13800
F320        F  0.27469427  0.28581120  0.07641562    -0.15200
C321        C  0.51529144  0.08947328  0.08129272     0.14900
C322        C  0.50423982  0.10818208  0.05696906     0.01800
C323        C  0.52818326  0.12539084  0.04315735     0.16800
C324        C  0.56684152  0.13001281  0.21605353     0.26200
C325        C  0.57305525  0.10613986  0.08061453    -0.40100
C326        C  0.54927276  0.08855976  0.09332197     0.33300
C327        C  0.46687268  0.11087832  0.05049971     0.01900
F328        F  0.52157448  0.15343794  0.18982509    -0.12400
F329        F  0.55882250  0.07058238  0.11787215    -0.12900
C330        C  0.44784432  0.12803067  0.07057372     0.16800
C331        C  0.41169194  0.12769871  0.07230423     0.26200
C332        C  0.39386829  0.11015538  0.05403415    -0.40000
C333        C  0.41292569  0.09423543  0.03084293     0.33200
C334        C  0.44925898  0.09443031  0.02956817     0.14900
F335        F  0.46421017  0.14382069  0.09166869    -0.12400
F336        F  0.39658732  0.07710396  0.01281359    -0.12900
F337        F  0.39408383  0.14361190  0.09430766    -0.15200
F338        F  0.46723402  0.07755585  0.01039091    -0.13800
F339        F  0.49258956  0.07269670  0.09516529    -0.13800
F340        F  0.58995767  0.14708417  0.20503566    -0.15200
C341        C  0.08537167  0.01631628  0.07298482     0.14900
C342        C  0.10119624  0.02823310  0.03928274     0.01800
C343        C  0.08397238  0.02937857  0.00345360     0.16800
C344        C  0.05642701  0.02456531  0.17883714     0.26200
C345        C  0.03772438  0.00516922  0.03410970    -0.40100
C346        C  0.05369342  0.00510780  0.07042821     0.33300
C347        C  0.13558667  0.03927780  0.04202640     0.01900
F348        F  0.08694245  0.06010054  0.16680748    -0.12400
F349        F  0.03811745  0.99427131  0.10329466    -0.12900
C350        C  0.16282912  0.02645109  0.05829085     0.16800
C351        C  0.19331359  0.03747577  0.06717347     0.26200
C352        C  0.19811971  0.06129194  0.05773461    -0.40000
C353        C  0.17227699  0.07371080  0.03805808     0.33200
C354        C  0.14084219  0.06293617  0.03115814     0.14900
F355        F  0.15954838  0.00326500  0.06656637    -0.12400
F356        F  0.17642769  0.09664505  0.02820218    -0.12900
F357        F  0.21793846  0.02485354  0.08565498    -0.15200
F358        F  0.11484171  0.07596240  0.01620844    -0.13800
F359        F  0.10085660  0.01541135  0.10824862    -0.13800
F360        F  0.03192922  0.03317993  0.15473648    -0.15200
C361        C  0.78815713  0.03693605  0.05456376     0.14900
C362        C  0.81979957  0.04802320  0.04394151     0.01800
C363        C  0.83425014  0.07305696  0.22237940     0.16800
C364        C  0.80385905  0.08593589  0.23001532     0.26200
C365        C  0.77127115  0.07499785  0.23273443    -0.40100
C366        C  0.76979606  0.05094602  0.22751703     0.33300
C367        C  0.85177765  0.03395545  0.03826719     0.01900
F368        F  0.86524869  0.08414393  0.21981866    -0.12400
F369        F  0.72960932  0.03849528  0.07856802    -0.12900
C370        C  0.86953347  0.02043027  0.17942953     0.16800
C371        C  0.89914599  0.00648590  0.17499994     0.26200
C372        C  0.91126886  0.00517832  0.03132446    -0.40000
C373        C  0.90921113  0.02316449  0.05864446     0.33200
C374        C  0.88000153  0.03744858  0.06181550     0.14900
F375        F  0.84561584  0.02019117  0.15134203    -0.12400
F376        F  0.93513869  0.02648722  0.08345472    -0.12900
F377        F  0.90363165  0.99380725  0.14216816    -0.15200
F378        F  0.87878945  0.05415160  0.08916229    -0.13800
F379        F  0.78633527  0.01341775  0.05830853    -0.13800
F380        F  0.80638493  0.10903456  0.23552855    -0.15200
C381        C  0.70400735  0.74098799  0.18028007     0.14900
C382        C  0.73059306  0.73869561  0.02704911     0.01800
C383        C  0.74248817  0.75799921  0.04629880     0.16800
C384        C  0.72896681  0.78013700  0.03759387     0.26200
C385        C  0.70358757  0.78312232  0.00934838    -0.40100
C386        C  0.68834954  0.76235795  0.17137062     0.33300
C387        C  0.74990454  0.71651993  0.02804946     0.01900
F388        F  0.76875238  0.75562668  0.07133727    -0.12400
F389        F  0.65899679  0.76284937  0.15097882    -0.12900
C390        C  0.77129903  0.71102832  0.99459562     0.16800
C391        C  0.78636278  0.68906635  0.99206168     0.26200
C392        C  0.78056619  0.67211152  0.02325715    -0.40000
C393        C  0.76088564  0.67817951  0.05801182     0.33200
C394        C  0.74546689  0.70023565  0.06024113     0.14900
F395        F  0.79977434  0.73366515  0.15706433    -0.12400
F396        F  0.75487246  0.66239559  0.08880092    -0.12900
F397        F  0.83008689  0.69116974  0.15095345    -0.15200
F398        F  0.72497309  0.70532279  0.09292133    -0.13800
F399        F  0.68978265  0.72129741  0.16774920    -0.13800
F400        F  0.74274422  0.79881709  0.05410361    -0.15200
C401        C  0.62254391  0.95572685  0.16873560     0.14900
C402        C  0.64148292  0.96331036  0.20008127     0.01800
C403        C  0.65858700  0.94708412  0.22422202     0.16800
C404        C  0.65948824  0.92373027  0.21487430     0.26200
C405        C  0.64277996  0.91618682  0.18151679    -0.40100
C406        C  0.62283056  0.93229471  0.15974644     0.33300
C407        C  0.64995752  0.98806258  0.20139617     0.01900
F408        F  0.67683877  0.95422019  0.25482334    -0.12400
F409        F  0.60551042  0.92574085  0.12802352    -0.12900
C410        C  0.62579641  0.00423165  0.21612389     0.16800
C411        C  0.63284219  0.02803805  0.21141995     0.26200
C412        C  0.66404098  0.03584026  0.19150624    -0.40000
C413        C  0.68887648  0.01930106  0.17883534     0.33200
C414        C  0.68182373  0.99570395  0.18376950     0.14900
F415        F  0.59494303  0.99697720  0.23353818    -0.12400
F416        F  0.71920321  0.02580619  0.15917747    -0.12900
F417        F  0.60844063  0.04337449  0.22445342    -0.15200
F418        F  0.70527384  0.98024289  0.16882236    -0.13800
F419        F  0.60634697  0.97132935  0.14464156    -0.13800
F420        F  0.68831967  0.90775873  0.07257038    -0.15200
C421        C  0.88544493  0.91462200  0.01496428     0.14900
C422        C  0.85663261  0.91893031  0.04079183     0.01800
C423        C  0.85536219  0.93930165  0.06203825     0.16800
C424        C  0.88334146  0.95456328  0.05934039     0.26200
C425        C  0.91223942  0.95072596  0.03292034    -0.40100
C426        C  0.91235722  0.93081180  0.00976643     0.33300
C427        C  0.82837025  0.90190650  0.04790978     0.01900
F428        F  0.82763627  0.94377429  0.08723993    -0.12400
F429        F  0.92664166  0.94157283  0.12857008    -0.12900
C430        C  0.82984754  0.88512413  0.07931477     0.16800
C431        C  0.80003726  0.87298315  0.09319243     0.26200
C432        C  0.76881525  0.87633042  0.07415177    -0.40000
C433        C  0.76832851  0.89161654  0.04023668     0.33200
C434        C  0.79772843  0.90468902  0.02778217     0.14900
F435        F  0.85986266  0.88114563  0.09754688    -0.12400
F436        F  0.73878709  0.89538952  0.02108250    -0.12900
F437        F  0.80144323  0.85839119  0.12594424    -0.15200
F438        F  0.79579022  0.92095587  0.99747590    -0.13800
F439        F  0.86782504  0.91569051  0.14146003    -0.13800
F440        F  0.88260719  0.97235594  0.08422227    -0.15200
C441        C  0.26276703  0.74085075  0.12646345     0.14900
C442        C  0.22945532  0.73470716  0.14201733     0.01800
C443        C  0.20892120  0.75127132  0.16193536     0.16800
C444        C  0.22086484  0.77413347  0.16419844     0.26200
C445        C  0.25346265  0.78061741  0.14631422    -0.40100
C446        C  0.27475348  0.76350935  0.12885095     0.33300
C447        C  0.21539979  0.71172265  0.13352306     0.01900
F448        F  0.17681328  0.74550379  0.17765965    -0.12400
F449        F  0.30685990  0.76897528  0.11268532    -0.12900
C450        C  0.22673345  0.69151801  0.15365654     0.16800
C451        C  0.21785544  0.66958803  0.14095599     0.26200
C452        C  0.19777894  0.66751195  0.10744314    -0.40000
C453        C  0.18483578  0.68795492  0.08884490     0.33200
C454        C  0.19362941  0.70979144  0.10183070     0.14900
F455        F  0.24727373  0.69308087  0.18490736    -0.12400
F456        F  0.16511795  0.67686092  0.23941906    -0.12900
F457        F  0.23014864  0.65046224  0.16052890    -0.15200
F458        F  0.18204305  0.72918487  0.08242673    -0.13800
F459        F  0.28297117  0.72519485  0.10684706    -0.13800
F460        F  0.19961565  0.79020442  0.18119538    -0.15200
C461        C  0.27457576  0.94999682  0.20455026     0.14900
C462        C  0.30805282  0.96019097  0.01298857     0.01800
C463        C  0.33100617  0.94255757  0.02479909     0.16800
C464        C  0.32406054  0.91931699  0.01735868     0.26200
C465        C  0.29486126  0.91374449  0.99656744    -0.40100
C466        C  0.27143491  0.93134993  0.98607388     0.33300
C467        C  0.31751729  0.98495148  0.01345919     0.01900
F468        F  0.36066465  0.94798964  0.04202886    -0.12400
F469        F  0.23276596  0.92047524  0.19949626    -0.12900
C470        C  0.29800695  0.00003234  0.03755166     0.16800
C471        C  0.29970312  0.02401750  0.02950901     0.26200
C472        C  0.32022257  0.03322940  0.99663631    -0.40000
C473        C  0.34283799  0.01819251  0.97560931     0.33200
C474        C  0.34140372  0.99421970  0.98396098     0.14900
F475        F  0.27558651  0.99141464  0.06709894    -0.12400
F476        F  0.34695620  0.01544003  0.10173677    -0.12900
F477        F  0.27921110  0.03800549  0.05197732    -0.15200
F478        F  0.34406374  0.97078145  0.12931433    -0.13800
F479        F  0.24858690  0.96592987  0.20438781    -0.13800
F480        F  0.34711384  0.90257324  0.02763109    -0.15200
C481        C  0.16729479  0.92524905  0.05523304     0.14900
C482        C  0.13593305  0.91387164  0.04978671     0.01800
C483        C  0.13616944  0.88958809  0.04713375     0.16800
C484        C  0.16673682  0.87682498  0.05219481     0.26200
C485        C  0.19777112  0.88813715  0.05981736    -0.40100
C486        C  0.19787616  0.91256733  0.05997283     0.33300
C487        C  0.10308790  0.92733941  0.04694774     0.01900
F488        F  0.10665220  0.87819232  0.04000956    -0.12400
F489        F  0.22705205  0.92421368  0.06752517    -0.12900
C490        C  0.10045092  0.94522494  0.01756498     0.16800
C491        C  0.06925986  0.95717043  0.01342748     0.26200
C492        C  0.04045239  0.95288945  0.04023961    -0.40000
C493        C  0.04334479  0.93530499  0.07048589     0.33200
C494        C  0.07416279  0.92244286  0.07340601     0.14900
F495        F  0.12799592  0.95096877  0.99223700    -0.12400
F496        F  0.01649454  0.93068608  0.09749934    -0.12900
F497        F  0.06697834  0.97250266  0.98218058    -0.15200
F498        F  0.07603330  0.90557482  0.10273567    -0.13800
F499        F  0.16801255  0.94864666  0.05809620    -0.13800
F500        F  0.16573667  0.85335678  0.05051655    -0.15200
C501        C  0.43992167  0.83004245  0.04631955     0.14900
C502        C  0.46280455  0.84476280  0.06430522     0.01800
C503        C  0.44924747  0.86349982  0.08552213     0.16800
C504        C  0.41346290  0.86684914  0.09049921     0.26200
C505        C  0.39037437  0.85164332  0.07400642    -0.40100
C506        C  0.40390088  0.83368778  0.05059425     0.33300
C507        C  0.50032331  0.83945329  0.06600333     0.01900
F508        F  0.46822691  0.86668554  0.96746161    -0.12400
F509        F  0.38227832  0.81866917  0.03444579    -0.12900
C510        C  0.52520257  0.85337307  0.04429866     0.16800
C511        C  0.56014405  0.85206942  0.05306834     0.26200
C512        C  0.57067617  0.83753471  0.08496045    -0.40000
C513        C  0.54599995  0.82281847  0.10548374     0.33200
C514        C  0.51128555  0.82348146  0.09549734     0.14900
F515        F  0.51546635  0.86950351  0.01658656    -0.12400
F516        F  0.55513906  0.80846719  0.13631742    -0.12900
F517        F  0.58302514  0.86664993  0.03272526    -0.15200
F518        F  0.48780799  0.80971984  0.11664688    -0.13800
F519        F  0.45227900  0.81148651  0.02647929    -0.13800
F520        F  0.39854994  0.86855294  0.97580797    -0.15200
O521        O  0.24405215  0.85443977  0.22650189    -0.55600
C522        C  0.35203843  0.83907878  0.26153029     0.77000
O523        O  0.30816706  0.87176896  0.17516527    -0.56800
C524        C  0.21927859  0.86152647  0.24952044     0.77000
C525        C  0.26061838  0.79749636  0.30850141     0.79400
Cd526      Cd  0.28012340  0.84363697  0.28309564     1.37500
O527        O  0.33065120  0.83886121  0.23409313    -0.55600
O528        O  0.26911504  0.80355794  0.27256853    -0.54400
C529        C  0.28624877  0.88809753  0.17714615     0.79400
O530        O  0.25502438  0.82090627  0.16429213    -0.56800
O531        O  0.34413494  0.85643796  0.12273045    -0.55200
O532        O  0.22174168  0.85747599  0.28666162    -0.55200
O533        O  0.28782133  0.88513963  0.27846277    -0.48800
O534        O  0.63008810  0.85536782  0.24761610    -0.55600
C535        C  0.73781668  0.87491907  0.25825765     0.77000
O536        O  0.66529795  0.87711369  0.18603348    -0.56800
C537        C  0.60781172  0.84499524  0.27115730     0.77000
C538        C  0.69791584  0.81229833  0.32587478     0.79400
Cd539      Cd  0.67436879  0.85739822  0.29844425     1.37500
O540        O  0.71357202  0.86809613  0.23778702    -0.55600
O541        O  0.69532651  0.81829955  0.28942113    -0.54400
C542        C  0.65372243  0.89855215  0.34056213     0.79400
O543        O  0.68696283  0.82320677  0.18789326    -0.56800
O544        O  0.73254482  0.87302032  0.29573444    -0.55200
O545        O  0.61720249  0.83985301  0.30599238    -0.55200
O546        O  0.64537848  0.89521962  0.30541717    -0.54400
C547        C  0.01801532  0.96463694  0.18637305     0.04500
C548        C  0.02010424  0.98875254  0.19437750     0.04500
C549        C  0.98890921  0.00137737  0.20002804    -0.16000
C550        C  0.95621455  0.99124203  0.19802896     0.04500
C551        C  0.95441478  0.96742124  0.19000843     0.04500
C552        C  0.98506989  0.95487273  0.18266884    -0.16000
H553        H  0.98314072  0.93659686  0.17697250     0.06500
H554        H  0.98997556  0.01953748  0.20684005     0.06500
O555        O  0.33781947  0.10576236  0.22507513    -0.55600
C556        C  0.23231431  0.08081974  0.24764193     0.77000
O557        O  0.29499756  0.06753556  0.16204601    -0.56800
C558        C  0.36014784  0.11375162  0.24727605     0.77000
C559        C  0.26852001  0.14411625  0.30701589     0.79400
Cd560      Cd  0.29298577  0.09956207  0.28122406     1.37500
O561        O  0.25937403  0.08571996  0.22565343    -0.55600
O562        O  0.26325673  0.13649529  0.27307781    -0.54400
C563        C  0.31182437  0.05177137  0.14389165     0.79400
O564        O  0.28276697  0.12520541  0.14921109    -0.56800
O565        O  0.23305204  0.08546544  0.28409505    -0.55200
O566        O  0.35038395  0.11609942  0.28353910    -0.55200
O567        O  0.32408445  0.06266346  0.28672963    -0.54400
O568        O  0.64596853  0.07717390  0.33678780    -0.55600
C569        C  0.68969353  0.14816318  0.32506850     0.77000
O570        O  0.69851759  0.07512434  0.42117278    -0.56800
C571        C  0.67132851  0.06349963  0.34100913     0.77000
C572        C  0.61245431  0.10792083  0.25316069     0.79400
Cd573      Cd  0.67840619  0.10444429  0.28992039     1.37500
O574        O  0.69187240  0.12927146  0.34543764    -0.55600
O575        O  0.61664601  0.09786690  0.28674783    -0.54400
C576        C  0.72726366  0.08517581  0.41419023     0.79400
O577        O  0.63611101  0.11383338  0.39917603    -0.56800
O578        O  0.68134642  0.14660622  0.28944419    -0.55200
O579        O  0.70019332  0.07041479  0.32560724    -0.55200
O580        O  0.74098259  0.10419568  0.26990390    -0.54400
O581        O  0.22251974  0.57489126  0.33896313    -0.55600
C582        C  0.13253899  0.60188032  0.35343993     0.77000
O583        O  0.16190067  0.56758751  0.27638412    -0.56800
C584        C  0.25270183  0.58321242  0.33729341     0.77000
C585        C  0.20324780  0.63628308  0.26248977     0.79400
Cd586      Cd  0.19430994  0.59267218  0.22471830     1.37500
O587        O  0.16003478  0.60911372  0.33463204    -0.55600
O588        O  0.19405848  0.64188299  0.39245206    -0.54400
C589        C  0.18605264  0.55274795  0.27846647     0.79400
O590        O  0.21539458  0.61752573  0.27695251    -0.56800
O591        O  0.13266176  0.58599154  0.21808779    -0.55200
O592        O  0.25395833  0.59704214  0.19155093    -0.55200
O593        O  0.21419409  0.55798588  0.25932401    -0.54400
O594        O  0.86336917  0.60714560  0.11357291    -0.55600
C595        C  0.75162445  0.58753805  0.14457099     0.77000
O596        O  0.82611781  0.57701874  0.22501106    -0.56800
C597        C  0.88547678  0.61395091  0.13726985     0.77000
C598        C  0.79893311  0.65047047  0.18813712     0.79400
Cd599      Cd  0.81706635  0.60462556  0.16745594     1.37500
O600        O  0.77448771  0.59437356  0.11796392    -0.55600
O601        O  0.80633124  0.64518196  0.15237463    -0.54400
C602        C  0.83902886  0.56142606  0.20291828     0.79400
O603        O  0.80083401  0.63442884  0.21522590    -0.56800
O604        O  0.75852664  0.59031369  0.18043465    -0.55200
O605        O  0.87469774  0.61770839  0.17282386    -0.55200
O606        O  0.84294016  0.56668997  0.16595092    -0.54400
C607        C  0.46608043  0.49368193  0.26846751     0.04500
C608        C  0.46384502  0.47017895  0.28308979     0.04500
C609        C  0.49472097  0.45875886  0.29273198    -0.16000
C610        C  0.52764316  0.46903429  0.28643953     0.04500
C611        C  0.53026174  0.49255713  0.27150937     0.04500
C612        C  0.49918229  0.50397380  0.26135220    -0.16000
H613        H  0.50038778  0.52133364  0.24933621     0.06500
H614        H  0.49320372  0.44132780  0.30554469     0.06500
O615        O  0.15120610  0.35762365  0.34995513    -0.55600
C616        C  0.25524436  0.37163646  0.36240279     0.77000
O617        O  0.19061022  0.37963696  0.28870629    -0.56800
C618        C  0.13184799  0.35107235  0.18240682     0.77000
C619        C  0.20822050  0.31040205  0.26406451     0.79400
Cd620      Cd  0.19205125  0.35623929  0.22922446     1.37500
O621        O  0.23104861  0.36386035  0.34294082    -0.55600
O622        O  0.21902360  0.31776664  0.22953168    -0.54400
C623        C  0.16509979  0.39223760  0.27983291     0.79400
O624        O  0.18896627  0.32433357  0.28360876    -0.56800
O625        O  0.24836946  0.37653576  0.22975829    -0.55200
O626        O  0.14738468  0.33344478  0.19658162    -0.55200
O627        O  0.14998690  0.38670510  0.24932576    -0.54400
O628        O  0.86725326  0.33944355  0.19745514    -0.55600
C629        C  0.74170090  0.36145331  0.15987156     0.77000
O630        O  0.81413313  0.39296706  0.33995250    -0.56800
C631        C  0.87917201  0.34190180  0.16150009     0.77000
C632        C  0.79061319  0.29998131  0.20714493     0.79400
Cd633      Cd  0.80787149  0.34716651  0.18524011     1.37500
O634        O  0.74750145  0.35748458  0.19639259    -0.55600
O635        O  0.78806027  0.31547011  0.23312342    -0.54400
C636        C  0.81962672  0.39261931  0.21149993     0.79400
O637        O  0.79301549  0.31367411  0.32469896    -0.56800
O638        O  0.76603164  0.35661751  0.13426007    -0.55200
O639        O  0.85739616  0.34628254  0.13497281    -0.55200
O640        O  0.82127414  0.37524528  0.23618473    -0.54400
C641        C  0.05065612  0.32602396  0.14266304     0.14900
C642        C  0.02829277  0.34534637  0.14346279     0.01800
C643        C  0.04193650  0.36718671  0.15084325     0.16800
C644        C  0.07647604  0.36931827  0.16057134     0.26200
C645        C  0.09800536  0.34954301  0.16371292    -0.40100
C646        C  0.08506502  0.32802661  0.15310854     0.33300
C647        C  0.99012656  0.34217481  0.14331764     0.01900
F648        F  0.02108298  0.38620057  0.15202898    -0.12400
F649        F  0.10517246  0.30867988  0.15456707    -0.12900
C650        C  0.97352129  0.32715571  0.17247245     0.16800
C651        C  0.93743333  0.32636686  0.17704273     0.26200
C652        C  0.91697345  0.34030753  0.15215042    -0.40000
C653        C  0.93342156  0.35441514  0.12151002     0.33200
C654        C  0.96974171  0.35555518  0.11742226     0.14900
F655        F  0.99227411  0.31420799  0.19831833    -0.12400
F656        F  0.91441663  0.36808236  0.09702195    -0.12900
F657        F  0.92249549  0.31236669  0.20673285    -0.15200
F658        F  0.99053164  0.34881474  0.25933750    -0.13800
F659        F  0.03857429  0.30490771  0.13379410    -0.13800
F660        F  0.08782703  0.39051311  0.17007300    -0.15200
C661        C  0.31151330  0.41446603  0.29986669     0.14900
C662        C  0.34417729  0.40992051  0.31482626     0.01800
C663        C  0.34804674  0.39104731  0.34217501     0.16800
C664        C  0.31911130  0.37823754  0.35704360     0.26200
C665        C  0.28620874  0.38317488  0.34298365    -0.40100
C666        C  0.28283018  0.40095615  0.31335130     0.33300
C667        C  0.37354670  0.42586014  0.30429690     0.01900
F668        F  0.37962085  0.38564852  0.35580148    -0.12400
F669        F  0.25142205  0.40633942  0.29940664    -0.12900
C670        C  0.39622761  0.43939623  0.16598348     0.16800
C671        C  0.42724289  0.45125678  0.15653950     0.26200
C672        C  0.43103001  0.45600429  0.28799738    -0.40000
C673        C  0.43128810  0.43317213  0.27405321     0.33200
C674        C  0.40329185  0.41817052  0.28298196     0.14900
F675        F  0.38292759  0.43867450  0.20429692    -0.12400
F676        F  0.45893782  0.42519565  0.25181439    -0.12900
F677        F  0.44581713  0.45922094  0.18613431    -0.15200
F678        F  0.40520537  0.39606903  0.27070935    -0.13800
F679        F  0.30731319  0.43233832  0.27283758    -0.13800
F680        F  0.32310976  0.36121294  0.38568290    -0.15200
C681        C  0.61071243  0.43364783  0.15807573     0.14900
C682        C  0.62176610  0.41810248  0.12859320     0.01800
C683        C  0.58925922  0.41781100  0.27808243     0.16800
C684        C  0.56062420  0.43234443  0.27367574     0.26200
C685        C  0.56608062  0.44894458  0.11583715    -0.40100
C686        C  0.58272448  0.44869687  0.15179402     0.33300
C687        C  0.65135908  0.40199620  0.13472006     0.01900
F688        F  0.59042933  0.39734858  0.25968834    -0.12400
F689        F  0.57059705  0.46240070  0.18120438    -0.12900
C690        C  0.65098753  0.38650065  0.16822697     0.16800
C691        C  0.67956121  0.37221711  0.17528341     0.26200
C692        C  0.70902806  0.37291285  0.14856289    -0.40000
C693        C  0.70838559  0.38726102  0.11360074     0.33200
C694        C  0.67999588  0.40181003  0.10688165     0.14900
F695        F  0.62270318  0.38502496  0.19395378    -0.12400
F696        F  0.73601397  0.38818089  0.08692047    -0.12900
F697        F  0.67843974  0.35779425  0.20843467    -0.15200
F698        F  0.68306596  0.43977743  0.26891929    -0.13800
F699        F  0.62707121  0.43431186  0.19274697    -0.13800
F700        F  0.53577522  0.42593765  0.24936640    -0.15200
C701        C  0.86483710  0.44715023  0.23883048     0.14900
C702        C  0.83883951  0.46392341  0.23310553     0.01800
C703        C  0.80595058  0.45677986  0.22270778     0.16800
C704        C  0.79966040  0.43345797  0.21623275     0.26200
C705        C  0.82540958  0.41664473  0.22252872    -0.40100
C706        C  0.85792947  0.42357125  0.23431598     0.33300
C707        C  0.84653940  0.48907435  0.23278458     0.01900
F708        F  0.78044474  0.47260956  0.21669146    -0.12400
F709        F  0.88367572  0.40771206  0.23858493    -0.12900
C710        C  0.86828440  0.49909796  0.20185177     0.16800
C711        C  0.86828421  0.52310579  0.19428039     0.26200
C712        C  0.84687977  0.53756142  0.21797777    -0.40000
C713        C  0.82859215  0.52773696  0.25204197     0.33200
C714        C  0.82802324  0.50360479  0.25902544     0.14900
F715        F  0.88727560  0.48552227  0.17678416    -0.12400
F716        F  0.79252658  0.54453645  0.12357966    -0.12900
F717        F  0.88753648  0.53202156  0.16210921    -0.15200
F718        F  0.80764444  0.49430844  0.28988949    -0.13800
F719        F  0.89712371  0.45370540  0.24753646    -0.13800
F720        F  0.76869995  0.42735945  0.20263260    -0.15200
C721        C  0.63338513  0.51037719  0.10156981     0.14900
C722        C  0.63006832  0.53240988  0.11808710     0.01800
C723        C  0.59269086  0.54274068  0.28510443     0.16800
C724        C  0.56251145  0.52945360  0.28450604     0.26200
C725        C  0.56339449  0.50675879  0.27018626    -0.40100
C726        C  0.60403720  0.49694507  0.09593090     0.33300
C727        C  0.66092333  0.54743467  0.12346983     0.01900
F728        F  0.58922026  0.56539896  0.29400967    -0.12400
F729        F  0.60872310  0.47791182  0.07422171    -0.12900
C730        C  0.68853154  0.54960419  0.09412841     0.16800
C731        C  0.71765465  0.56305946  0.10042900     0.26200
C732        C  0.71929859  0.57563101  0.13521974    -0.40000
C733        C  0.69113277  0.57439294  0.16359885     0.33200
C734        C  0.66301577  0.55990224  0.15853287     0.14900
F735        F  0.68992999  0.53204163  0.22577961    -0.12400
F736        F  0.69106608  0.58685571  0.19699927    -0.12900
F737        F  0.74708808  0.55557468  0.24098984    -0.15200
F738        F  0.63872664  0.55721551  0.18923021    -0.13800
F739        F  0.66502478  0.50143362  0.09123974    -0.13800
F740        F  0.53248361  0.53885396  0.29941380    -0.15200
C741        C  0.17371817  0.44227842  0.34700375     0.14900
C742        C  0.15513482  0.45940432  0.32636595     0.01800
C743        C  0.13316240  0.45291057  0.29690502     0.16800
C744        C  0.13320689  0.43006430  0.28466049     0.26200
C745        C  0.15564023  0.41346693  0.30151238    -0.40100
C746        C  0.17380305  0.41942408  0.33483877     0.33300
C747        C  0.16671114  0.48370294  0.32544325     0.01900
F748        F  0.11886053  0.47069502  0.43901706    -0.12400
F749        F  0.19431257  0.40377138  0.35334290    -0.12900
C750        C  0.19792644  0.48912868  0.30378907     0.16800
C751        C  0.20512809  0.51187505  0.29067972     0.26200
C752        C  0.18149560  0.52984401  0.29972025    -0.40000
C753        C  0.15176997  0.52467402  0.32483257     0.33200
C754        C  0.14434379  0.50164098  0.33748008     0.14900
F755        F  0.21976997  0.47198192  0.29152792    -0.12400
F756        F  0.12891492  0.54161367  0.33510200    -0.12900
F757        F  0.23380789  0.51580698  0.26602523    -0.15200
F758        F  0.11443286  0.49666579  0.35929649    -0.13800
F759        F  0.19488943  0.44822340  0.37580580    -0.13800
F760        F  0.11422487  0.42500179  0.25335998    -0.15200
C761        C  0.33869926  0.57318261  0.28071037     0.14900
C762        C  0.34134565  0.54884976  0.28459155     0.01800
C763        C  0.31340852  0.53604180  0.30262799     0.16800
C764        C  0.28384874  0.54737227  0.31783289     0.26200
C765        C  0.28172545  0.57173350  0.31552076    -0.40100
C766        C  0.30915464  0.58457826  0.29636225     0.33300
C767        C  0.37461596  0.53691094  0.27507981     0.01900
F768        F  0.31588971  0.51264983  0.30843667    -0.12400
F769        F  0.30771372  0.60811790  0.29375849    -0.12900
C770        C  0.40974971  0.53593652  0.14563170     0.16800
C771        C  0.43975444  0.52233177  0.14097622     0.26200
C772        C  0.43534300  0.50948450  0.26714312    -0.40000
C773        C  0.40668449  0.50525377  0.24432206     0.33200
C774        C  0.37656837  0.51878575  0.24842367     0.14900
F775        F  0.40715164  0.55116571  0.17539766    -0.12400
F776        F  0.40671741  0.48724822  0.21998391    -0.12900
F777        F  0.46518225  0.52452495  0.16679818    -0.15200
F778        F  0.34874883  0.51360665  0.22757550    -0.13800
F779        F  0.36528151  0.58589946  0.26308679    -0.13800
F780        F  0.25864680  0.53460534  0.33816525    -0.15200
C781        C  0.05651197  0.62443504  0.29677054     0.14900
C782        C  0.03110888  0.60482117  0.13499344     0.01800
C783        C  0.03707376  0.58611851  0.16191603     0.16800
C784        C  0.06975839  0.58272141  0.17689443     0.26200
C785        C  0.09834791  0.60329247  0.33608492    -0.40100
C786        C  0.09027320  0.62178942  0.30942365     0.33300
C787        C  0.99513888  0.61070847  0.12592326     0.01900
F788        F  0.01058910  0.57198936  0.17562908    -0.12400
F789        F  0.11439422  0.63810489  0.29770715    -0.12900
C790        C  0.97632184  0.59631942  0.27870677     0.16800
C791        C  0.94013979  0.59759091  0.27765184     0.26200
C792        C  0.92278563  0.61581261  0.12610120    -0.40000
C793        C  0.94282281  0.63171562  0.14541518     0.33200
C794        C  0.97873184  0.62922753  0.14517360     0.14900
F795        F  0.99369819  0.57878638  0.26058387    -0.12400
F796        F  0.92736114  0.64863318  0.16711124    -0.12900
F797        F  0.92321186  0.58109860  0.25871019    -0.15200
F798        F  0.99713551  0.64355443  0.16700664    -0.13800
F799        F  0.04849611  0.64332774  0.27349417    -0.13800
F800        F  0.07416604  0.56499317  0.20415436    -0.15200
C801        C  0.73307833  0.19422062  0.38169084     0.14900
C802        C  0.72168682  0.21446812  0.36171985     0.01800
C803        C  0.69628509  0.21297882  0.33387490     0.16800
C804        C  0.68481492  0.19139041  0.32295740     0.26200
C805        C  0.69774945  0.17087459  0.34098779    -0.40100
C806        C  0.72088195  0.17251166  0.37171853     0.33300
C807        C  0.73952118  0.23675571  0.36505435     0.01900
F808        F  0.68354263  0.23255441  0.31628464    -0.12400
F809        F  0.73365984  0.15312075  0.39002056    -0.12900
C810        C  0.76726201  0.24259042  0.33776329     0.16800
C811        C  0.78198850  0.26465671  0.33696527     0.26200
C812        C  0.77832861  0.27596135  0.21559526    -0.40000
C813        C  0.74486927  0.27219985  0.23313892     0.33200
C814        C  0.72938434  0.25037552  0.23235621     0.14900
F815        F  0.77901350  0.22719098  0.31060022    -0.12400
F816        F  0.72588295  0.29019284  0.24747885    -0.12900
F817        F  0.80845590  0.26981707  0.30967968    -0.15200
F818        F  0.69545471  0.24805226  0.24434816    -0.13800
F819        F  0.75717714  0.19542912  0.40939557    -0.13800
F820        F  0.66181354  0.19058244  0.29393423    -0.15200
C821        C  0.20934897  0.25353254  0.32751115     0.14900
C822        C  0.23427753  0.24061701  0.30572338     0.01800
C823        C  0.25155582  0.25106299  0.27171785     0.16800
C824        C  0.24336242  0.27370467  0.25877083     0.26200
C825        C  0.21782038  0.28671181  0.27984341    -0.40100
C826        C  0.20142823  0.27648194  0.31499835     0.33300
C827        C  0.24030337  0.21558211  0.31548203     0.01900
F828        F  0.27562350  0.23893480  0.25002353    -0.12400
F829        F  0.17710312  0.28836963  0.33670019    -0.12900
C830        C  0.21582092  0.19920803  0.30551576     0.16800
C831        C  0.22412103  0.17554368  0.30613305     0.26200
C832        C  0.25700853  0.16780455  0.31680477    -0.40000
C833        C  0.28051607  0.18393396  0.33000491     0.33200
C834        C  0.27233558  0.20772213  0.32893988     0.14900
F835        F  0.18486933  0.20631134  0.29208207    -0.12400
F836        F  0.31113225  0.16852458  0.16505653    -0.12900
F837        F  0.20058682  0.16020437  0.29443184    -0.15200
F838        F  0.29700770  0.21466040  0.17219616    -0.13800
F839        F  0.19236183  0.24377249  0.36056035    -0.13800
F840        F  0.26037266  0.28273519  0.22513540    -0.15200
C841        C  0.51821010  0.09553060  0.23943509     0.14900
C842        C  0.50711287  0.11621083  0.22057939     0.01800
C843        C  0.53173447  0.13330991  0.20821187     0.16800
C844        C  0.56689191  0.12375040  0.36582920     0.26200
C845        C  0.57737352  0.10994122  0.23767163    -0.40100
C846        C  0.55275937  0.09257840  0.24852773     0.33300
C847        C  0.46933736  0.12048495  0.21903890     0.01900
F848        F  0.52584181  0.14191117  0.32402926    -0.12400
F849        F  0.56192398  0.07293286  0.26915800    -0.12900
C850        C  0.45273112  0.13470646  0.24720049     0.16800
C851        C  0.41672627  0.13380249  0.25435937     0.26200
C852        C  0.39655356  0.11882287  0.23308318    -0.40000
C853        C  0.41293140  0.10626472  0.20220295     0.33200
C854        C  0.44910069  0.10692310  0.19556232     0.14900
F855        F  0.47166713  0.14801339  0.27019367    -0.12400
F856        F  0.39442083  0.09172250  0.18092008    -0.12900
F857        F  0.40183467  0.14668895  0.28366164    -0.15200
F858        F  0.46463878  0.09305656  0.16817046    -0.13800
F859        F  0.49503939  0.07862437  0.25108058    -0.13800
F860        F  0.59021951  0.14051780  0.35380959    -0.15200
C861        C  0.10963306  0.00742300  0.22474298     0.14900
C862        C  0.11213807  0.02993127  0.20701930     0.01800
C863        C  0.08514367  0.03845033  0.18439534     0.16800
C864        C  0.05664536  0.02567699  0.33811424     0.26200
C865        C  0.05315893  0.00205545  0.19729890    -0.40100
C866        C  0.08013970  0.99388433  0.22082686     0.33300
C867        C  0.14262478  0.04460615  0.21303426     0.01900
F868        F  0.10163136  0.05140615  0.31361152    -0.12400
F869        F  0.07779304  0.97315506  0.24125012    -0.12900
C870        C  0.17595869  0.03740524  0.20003846     0.16800
C871        C  0.20506448  0.05009300  0.20894801     0.26200
C872        C  0.20151527  0.06967531  0.23245555    -0.40000
C873        C  0.16801060  0.07729876  0.24431055     0.33200
C874        C  0.13878315  0.06531878  0.23345728     0.14900
F875        F  0.18031623  0.01791147  0.17899526    -0.12400
F876        F  0.16359739  0.09631390  0.26654846    -0.12900
F877        F  0.23670837  0.04240519  0.19627717    -0.15200
F878        F  0.10673254  0.07356297  0.24393085    -0.13800
F879        F  0.13529947  0.99884437  0.24719118    -0.13800
F880        F  0.04173389  0.02815256  0.30249411    -0.15200
C881        C  0.80009379  0.03810861  0.21983180     0.14900
C882        C  0.83270970  0.04894584  0.21766451     0.01800
C883        C  0.81842724  0.07261998  0.37239174     0.16800
C884        C  0.78743793  0.08446527  0.38165787     0.26200
C885        C  0.75845025  0.07244420  0.39922201    -0.40100
C886        C  0.76095210  0.04822980  0.40663579     0.33300
C887        C  0.86493145  0.03484782  0.21204838     0.01900
F888        F  0.84628528  0.08469805  0.35637006    -0.12400
F889        F  0.73926826  0.03944826  0.23323738    -0.12900
C890        C  0.85736787  0.01906771  0.34465371     0.16800
C891        C  0.88775180  0.00583204  0.34057539     0.26200
C892        C  0.92454867  0.00614778  0.20336800    -0.40000
C893        C  0.92024923  0.02092605  0.23567174     0.33200
C894        C  0.89083239  0.03516009  0.23987202     0.14900
F895        F  0.83115657  0.01540639  0.32042629    -0.12400
F896        F  0.94424073  0.02132269  0.26364503    -0.12900
F897        F  0.88997075  0.98979468  0.31244353    -0.15200
F898        F  0.88728267  0.04886449  0.27173431    -0.13800
F899        F  0.79765489  0.01478297  0.21673018    -0.13800
F900        F  0.78598559  0.10775989  0.37416089    -0.15200
C901        C  0.71966951  0.74869528  0.31957749     0.14900
C902        C  0.73538456  0.74004837  0.19945219     0.01800
C903        C  0.74987316  0.76075305  0.21153244     0.16800
C904        C  0.73375505  0.78211288  0.20343363     0.26200
C905        C  0.70343507  0.78310626  0.18223880    -0.40100
C906        C  0.70488214  0.77042726  0.31227374     0.33300
C907        C  0.75470069  0.71783662  0.20217667     0.01900
F908        F  0.78043839  0.76040678  0.22949746    -0.12400
F909        F  0.68492590  0.77352093  0.28043451    -0.12900
C910        C  0.78585518  0.71530334  0.17900776     0.16800
C911        C  0.80137434  0.69345511  0.17578820     0.26200
C912        C  0.78665078  0.67398125  0.19690458    -0.40000
C913        C  0.75676162  0.67676209  0.22199506     0.33200
C914        C  0.74033240  0.69836651  0.22370873     0.14900
F915        F  0.78932991  0.72988998  0.29127461    -0.12400
F916        F  0.74174422  0.65812257  0.24206952    -0.12900
F917        F  0.81229896  0.68576149  0.28792023    -0.15200
F918        F  0.70927158  0.69985351  0.24436189    -0.13800
F919        F  0.71323498  0.73146919  0.29497046    -0.13800
F920        F  0.74920530  0.80194137  0.21353970    -0.15200
C921        C  0.62420159  0.96044125  0.35244099     0.14900
C922        C  0.64679861  0.96778797  0.38066580     0.01800
C923        C  0.66620524  0.95116258  0.40162706     0.16800
C924        C  0.66595179  0.92790140  0.39130958     0.26200
C925        C  0.64663885  0.92103835  0.35943804    -0.40100
C926        C  0.62407759  0.93727734  0.34192558     0.33300
C927        C  0.65526754  0.99274911  0.38123485     0.01900
F928        F  0.68739387  0.95778957  0.42995094    -0.12400
F929        F  0.60349705  0.93114361  0.31268293    -0.12900
C930        C  0.62930939  0.00933710  0.38907728     0.16800
C931        C  0.63532845  0.03283072  0.37889510     0.26200
C932        C  0.66726028  0.03999101  0.36011678    -0.40000
C933        C  0.69394031  0.02345966  0.35480124     0.33200
C934        C  0.68813520  0.00017056  0.36590460     0.14900
F935        F  0.59747348  0.00257691  0.40429894    -0.12400
F936        F  0.72484504  0.02934613  0.33579943    -0.12900
F937        F  0.60915600  0.04827570  0.38501721    -0.15200
F938        F  0.71371387  0.98451863  0.35791321    -0.13800
F939        F  0.60478937  0.97612306  0.33207969    -0.13800
F940        F  0.67937736  0.90907100  0.23634594    -0.15200
C941        C  0.87883117  0.92818735  0.17136707     0.14900
C942        C  0.86102733  0.92694033  0.20912779     0.01800
C943        C  0.87385059  0.93958228  0.24004071     0.16800
C944        C  0.90410327  0.95270016  0.23339485     0.26200
C945        C  0.92149619  0.95420617  0.19559529    -0.40100
C946        C  0.90901535  0.94151412  0.16472638     0.33300
C947        C  0.83053863  0.91139707  0.21741158     0.01900
F948        F  0.85726111  0.93900790  0.27683467    -0.12400
F949        F  0.94535670  0.92994836  0.31916463    -0.12900
C950        C  0.83071506  0.89472283  0.24917773     0.16800
C951        C  0.80092436  0.88212610  0.26110346     0.26200
C952        C  0.77047546  0.88522610  0.24054428    -0.40000
C953        C  0.77108521  0.90025636  0.20625841     0.33200
C954        C  0.80078183  0.91353186  0.19513907     0.14900
F955        F  0.85986179  0.89074854  0.26897431    -0.12400
F956        F  0.74235871  0.90329930  0.18516494    -0.12900
F957        F  0.80170920  0.86705490  0.29331161    -0.15200
F958        F  0.79976711  0.92935221  0.16408341    -0.13800
F959        F  0.89440946  0.89798873  0.33073109    -0.13800
F960        F  0.91788497  0.96287052  0.26438012    -0.15200
C961        C  0.26478458  0.73274310  0.30707427     0.14900
C962        C  0.23068810  0.72650051  0.31970655     0.01800
C963        C  0.20767372  0.74367056  0.33398525     0.16800
C964        C  0.21839308  0.76688166  0.33411755     0.26200
C965        C  0.25177304  0.77315017  0.31876677    -0.40100
C966        C  0.27509919  0.75586120  0.30631284     0.33300
C967        C  0.21863440  0.70290633  0.31182130     0.01900
F968        F  0.17436845  0.73817977  0.34554515    -0.12400
F969        F  0.30743880  0.76159025  0.29124969    -0.12900
C970        C  0.23653015  0.68328754  0.32619485     0.16800
C971        C  0.23119635  0.66156046  0.31070315     0.26200
C972        C  0.20733001  0.65892072  0.28106005    -0.40000
C973        C  0.18819985  0.67845878  0.26818281     0.33200
C974        C  0.19374280  0.70018232  0.28352293     0.14900
F975        F  0.26063511  0.68544482  0.35369284    -0.12400
F976        F  0.17261672  0.68502739  0.40067635    -0.12900
F977        F  0.25104034  0.64349330  0.32299841    -0.15200
F978        F  0.17661678  0.71890589  0.26842341    -0.13800
F979        F  0.28728323  0.71671679  0.29211810    -0.13800
F980        F  0.19533431  0.78343752  0.34579377    -0.15200
C981        C  0.27331333  0.95191423  0.32644853     0.14900
C982        C  0.30933781  0.95716318  0.20294475     0.01800
C983        C  0.33565209  0.94029506  0.20388523     0.16800
C984        C  0.32757596  0.91678734  0.20132025     0.26200
C985        C  0.29309259  0.90999536  0.19673155    -0.40100
C986        C  0.26648049  0.92657043  0.20151063     0.33300
C987        C  0.31769722  0.98177337  0.19217672     0.01900
F988        F  0.36937885  0.94677887  0.20368341    -0.12400
F989        F  0.24236443  0.92323297  0.29464740    -0.12900
C990        C  0.30625164  0.99956928  0.21692029     0.16800
C991        C  0.30758624  0.02278342  0.20271814     0.26200
C992        C  0.31907062  0.02851422  0.16287335    -0.40000
C993        C  0.33357157  0.01074882  0.13950163     0.33200
C994        C  0.33274212  0.98764202  0.15397249     0.14900
F995        F  0.29203600  0.99433346  0.25407247    -0.12400
F996        F  0.36351292  0.02523698  0.29003974    -0.12900
F997        F  0.29600564  0.03944771  0.22741963    -0.15200
F998        F  0.35812198  0.97864124  0.30332482    -0.13800
F999        F  0.25110066  0.96822270  0.31237651    -0.13800
F1000       F  0.35390900  0.90114687  0.19865258    -0.15200
C1001       C  0.14667252  0.90538044  0.24767709     0.14900
C1002       C  0.13545066  0.90398351  0.20889095     0.01800
C1003       C  0.15204006  0.88852179  0.18270814     0.16800
C1004       C  0.17921292  0.87430128  0.19563985     0.26200
C1005       C  0.18993560  0.87542927  0.23492716    -0.40100
C1006       C  0.17349364  0.89130684  0.26057345     0.33300
C1007       C  0.10477605  0.91767830  0.19774896     0.01900
F1008       F  0.14116455  0.88668513  0.14525287    -0.12400
F1009       F  0.18392200  0.89371398  0.29807981    -0.12900
C1010       C  0.10769019  0.93663976  0.17007713     0.16800
C1011       C  0.07927604  0.95146239  0.16446826     0.26200
C1012       C  0.04783853  0.94795468  0.18748730    -0.40000
C1013       C  0.04502615  0.92832395  0.21419849     0.33200
C1014       C  0.07299450  0.91331428  0.21885933     0.14900
F1015       F  0.13852849  0.94150906  0.15011947    -0.12400
F1016       F  0.01571472  0.92431899  0.23776954    -0.12900
F1017       F  0.08324175  0.96971959  0.13796779    -0.15200
F1018       F  0.06958543  0.89497264  0.24560320    -0.13800
F1019       F  0.13139960  0.92044105  0.27327765    -0.13800
F1020       F  0.19427174  0.85905004  0.17027649    -0.15200
C1021       C  0.44345585  0.82584307  0.22050155     0.14900
C1022       C  0.46285861  0.83844712  0.24631178     0.01800
C1023       C  0.44568299  0.85222408  0.27461882     0.16800
C1024       C  0.40968665  0.85267688  0.27845216     0.26200
C1025       C  0.38996557  0.83954960  0.25370247    -0.40100
C1026       C  0.40703346  0.82655458  0.22388937     0.33300
C1027       C  0.50087472  0.83619365  0.24689539     0.01900
F1028       F  0.47074457  0.87766308  0.10381949    -0.12400
F1029       F  0.38863932  0.81364002  0.19971214    -0.12900
C1030       C  0.52279726  0.84890208  0.21930643     0.16800
C1031       C  0.55823007  0.85082818  0.22569671     0.26200
C1032       C  0.57209580  0.83995385  0.25983378    -0.40000
C1033       C  0.55022444  0.82585671  0.28566634     0.33200
C1034       C  0.51499537  0.82419046  0.27938428     0.14900
F1035       F  0.50944175  0.86073972  0.18782374    -0.12400
F1036       F  0.56251094  0.81441873  0.31817991    -0.12900
F1037       F  0.57827913  0.86456661  0.19998123    -0.15200
F1038       F  0.49412607  0.81185326  0.30639399    -0.13800
F1039       F  0.45973956  0.81210827  0.19346303    -0.13800
F1040       F  0.40127379  0.88452182  0.11284597    -0.15200
O1041       O  0.23145239  0.86065013  0.42244430    -0.55600
C1042       C  0.36045650  0.85826615  0.41501744     0.77000
O1043       O  0.28752481  0.86986660  0.33853760    -0.56800
C1044       C  0.23434940  0.88131521  0.40844346     0.77000
C1045       C  0.27583017  0.80865419  0.45994383     0.79400
Cd1046     Cd  0.29010605  0.85796995  0.44795957     1.37500
O1047       O  0.33605225  0.85440392  0.39252362    -0.55600
O1048       O  0.28580203  0.81851485  0.42697334    -0.54400
C1049       C  0.28937690  0.88799695  0.31546641     0.79400
O1050       O  0.26051061  0.81309402  0.33413958    -0.56800
O1051       O  0.33949791  0.83981918  0.29712824    -0.55200
O1052       O  0.26433752  0.89005832  0.40825251    -0.55200
O1053       O  0.31536820  0.87685457  0.50515297    -0.48800
O1054       O  0.63832025  0.85383222  0.41702648    -0.55600
C1055       C  0.74278821  0.86886508  0.42460533     0.77000
O1056       O  0.67004121  0.88213079  0.35736759    -0.56800
C1057       C  0.61293427  0.84647129  0.43963934     0.77000
C1058       C  0.69782123  0.81000266  0.50492283     0.79400
Cd1059     Cd  0.67979010  0.85495171  0.47022866     1.37500
O1060       O  0.71552774  0.86474670  0.40708156    -0.55600
O1061       O  0.68856028  0.81323111  0.46954790    -0.54400
C1062       C  0.66239302  0.89796205  0.50889457     0.79400
O1063       O  0.68935313  0.82741084  0.35108151    -0.56800
O1064       O  0.74116525  0.86525068  0.46199073    -0.55200
O1065       O  0.61926502  0.84155393  0.47572083    -0.55200
O1066       O  0.65066310  0.89289491  0.47609733    -0.54400
C1067       C  0.01269860  0.97140784  0.36692052     0.04500
C1068       C  0.01144293  0.99595477  0.36265995     0.04500
C1069       C  0.97940485  0.00716415  0.35944384    -0.16000
C1070       C  0.94783095  0.99487537  0.36259658     0.04500
C1071       C  0.94882499  0.97008043  0.36601077     0.04500
C1072       C  0.98143116  0.95902452  0.36818301    -0.16000
H1073       H  0.98252947  0.94035439  0.37175689     0.06500
H1074       H  0.97896411  0.02590196  0.35684559     0.06500
O1075       O  0.33951108  0.09790225  0.37420998    -0.55600
C1076       C  0.23185490  0.08007044  0.41520934     0.77000
O1077       O  0.29166871  0.07075759  0.33833357    -0.56800
C1078       C  0.36285820  0.10904457  0.39030721     0.77000
C1079       C  0.27532448  0.14291923  0.45930751     0.79400
Cd1080     Cd  0.29833445  0.09815499  0.43474371     1.37500
O1081       O  0.24917166  0.09321219  0.39018266    -0.55600
O1082       O  0.27054334  0.13515495  0.42539307    -0.54400
C1083       C  0.31080194  0.05607258  0.32053967     0.79400
O1084       O  0.28477236  0.13079579  0.33070960    -0.56800
O1085       O  0.24489164  0.07595881  0.44846564    -0.55200
O1086       O  0.35524330  0.11590153  0.42501231    -0.55200
O1087       O  0.32098817  0.05873052  0.43899351    -0.54400
O1088       O  0.63863176  0.07764933  0.50695697    -0.55600
C1089       C  0.68578180  0.15062120  0.49282598     0.77000
O1090       O  0.72160963  0.08415202  0.57432158    -0.56800
C1091       C  0.66588118  0.06633150  0.51455657     0.77000
C1092       C  0.60749107  0.10745564  0.41643743     0.79400
Cd1093     Cd  0.67031055  0.10588691  0.45948752     1.37500
O1094       O  0.69120535  0.13146565  0.51122661    -0.55600
O1095       O  0.60811741  0.10132512  0.45307647    -0.54400
C1096       C  0.75006289  0.08767237  0.59007418     0.79400
O1097       O  0.64507125  0.11277995  0.56980131    -0.56800
O1098       O  0.67178964  0.14924908  0.45988454    -0.55200
O1099       O  0.69417677  0.07561136  0.50198866    -0.55200
O1100       O  0.72830421  0.10621410  0.42330030    -0.54400
O1101       O  0.22795172  0.57037032  0.51605920    -0.55600
C1102       C  0.13261228  0.60143637  0.51383169     0.77000
O1103       O  0.16647031  0.57233803  0.43813738    -0.56800
C1104       C  0.25651230  0.58103528  0.51407193     0.77000
C1105       C  0.20928793  0.64391903  0.42441414     0.79400
Cd1106     Cd  0.19766207  0.59939869  0.39034602     1.37500
O1107       O  0.16179057  0.60662619  0.49654711    -0.55600
O1108       O  0.19414440  0.63949592  0.56345338    -0.54400
C1109       C  0.19177460  0.55861599  0.44213453     0.79400
O1110       O  0.21859913  0.62513609  0.44168294    -0.56800
O1111       O  0.13560888  0.59356626  0.38853793    -0.55200
O1112       O  0.25703163  0.60081169  0.35758314    -0.55200
O1113       O  0.22061928  0.56541227  0.42627276    -0.54400
O1114       O  0.86312853  0.60452608  0.28376271    -0.55600
C1115       C  0.75049819  0.58475914  0.30778497     0.77000
O1116       O  0.81889605  0.57766275  0.39616113    -0.56800
C1117       C  0.88387589  0.61199001  0.30843440     0.77000
C1118       C  0.79420124  0.65073119  0.34779149     0.79400
Cd1119     Cd  0.81386005  0.60318731  0.33475541     1.37500
O1120       O  0.77658757  0.58785089  0.28329796    -0.55600
O1121       O  0.80112723  0.64290039  0.31347430    -0.54400
C1122       C  0.83329183  0.56118188  0.37746093     0.79400
O1123       O  0.79613127  0.63627730  0.37741148    -0.56800
O1124       O  0.75369706  0.59166945  0.34261888    -0.55200
O1125       O  0.87123900  0.61636550  0.34300511    -0.55200
O1126       O  0.83954266  0.56482483  0.34032898    -0.54400
C1127       C  0.47425367  0.49193292  0.44180579     0.04500
C1128       C  0.47301267  0.46751534  0.44446951     0.04500
C1129       C  0.50393474  0.45484569  0.44351554    -0.16000
C1130       C  0.53632108  0.46584239  0.44306799     0.04500
C1131       C  0.53790052  0.49070546  0.44053886     0.04500
C1132       C  0.50643656  0.50283369  0.43604288    -0.16000
H1133       H  0.50652228  0.52174261  0.43056193     0.06500
H1134       H  0.50261335  0.43596728  0.44654246     0.06500
O1135       O  0.15268432  0.36516627  0.51915534    -0.55600
C1136       C  0.26131374  0.37239974  0.52515869     0.77000
O1137       O  0.19537694  0.38093116  0.45665664    -0.56800
C1138       C  0.13017888  0.34227228  0.36436182     0.77000
C1139       C  0.21380125  0.30911188  0.43751384     0.79400
Cd1140     Cd  0.19246931  0.35327738  0.40324974     1.37500
O1141       O  0.23994862  0.36222801  0.50464029    -0.55600
O1142       O  0.22109703  0.31578307  0.40159720    -0.54400
C1143       C  0.17034059  0.39367428  0.44690066     0.79400
O1144       O  0.19593255  0.32303424  0.45863395    -0.56800
O1145       O  0.25108405  0.36979036  0.39998396    -0.55200
O1146       O  0.13909698  0.33087069  0.39523734    -0.55200
O1147       O  0.15341700  0.38663985  0.41877207    -0.54400
O1148       O  0.86157561  0.34146577  0.36609703    -0.55600
C1149       C  0.74117885  0.37022320  0.31955907     0.77000
O1150       O  0.81853302  0.39360370  0.50877383    -0.56800
C1151       C  0.87703757  0.34128361  0.33171572     0.77000
C1152       C  0.78193204  0.30549409  0.35881128     0.79400
Cd1153     Cd  0.80523554  0.35190021  0.34526846     1.37500
O1154       O  0.74419434  0.36107601  0.35431807    -0.55600
O1155       O  0.78180839  0.31905995  0.38785990    -0.54400
C1156       C  0.81709383  0.39553833  0.37693194     0.79400
O1157       O  0.80127467  0.31329468  0.49254442    -0.56800
O1158       O  0.76750447  0.36925943  0.29488428    -0.55200
O1159       O  0.85877757  0.34616699  0.30188134    -0.55200
O1160       O  0.81611917  0.37736606  0.39992909    -0.54400
C1161       C  0.04600929  0.31419574  0.33975932     0.14900
C1162       C  0.02617133  0.33372884  0.32866942     0.01800
C1163       C  0.04228711  0.35560161  0.32482758     0.16800
C1164       C  0.07693970  0.35808461  0.33390356     0.26200
C1165       C  0.09601080  0.33880778  0.34773011    -0.40100
C1166       C  0.08051436  0.31674919  0.34959475     0.33300
C1167       C  0.98794297  0.33201495  0.32606955     0.01900
F1168       F  0.02374037  0.37489584  0.31515527    -0.12400
F1169       F  0.09861206  0.29771511  0.36163785    -0.12900
C1170       C  0.96743476  0.32345313  0.35937373     0.16800
C1171       C  0.93136876  0.32555932  0.36032506     0.26200
C1172       C  0.91480137  0.33612048  0.32777067    -0.40000
C1173       C  0.93516127  0.34306920  0.29319915     0.33200
C1174       C  0.97142761  0.34113817  0.29246081     0.14900
F1175       F  0.98240879  0.31416758  0.39208069    -0.12400
F1176       F  0.92021123  0.35286815  0.26091747    -0.12900
F1177       F  0.91275706  0.31774392  0.39376173    -0.15200
F1178       F  0.99532168  0.36563157  0.42236296    -0.13800
F1179       F  0.03161887  0.29271904  0.34219690    -0.13800
F1180       F  0.09088487  0.37968623  0.33232019    -0.15200
C1181       C  0.31900355  0.41559084  0.46547824     0.14900
C1182       C  0.35096507  0.41168692  0.48272969     0.01800
C1183       C  0.35378517  0.39324190  0.51130375     0.16800
C1184       C  0.32473506  0.37999662  0.52425520     0.26200
C1185       C  0.29271242  0.38416997  0.50748082    -0.40100
C1186       C  0.29028009  0.40169403  0.47729054     0.33300
C1187       C  0.38104991  0.42722041  0.47222112     0.01900
F1188       F  0.38471714  0.38812747  0.52683449    -0.12400
F1189       F  0.25956396  0.40645294  0.46110879    -0.12900
C1190       C  0.37234753  0.44870268  0.31704508     0.16800
C1191       C  0.40080629  0.46348530  0.30951408     0.26200
C1192       C  0.44034347  0.45471305  0.45337289    -0.40000
C1193       C  0.42301900  0.44467184  0.42290865     0.33200
C1194       C  0.39340430  0.43117127  0.43223703     0.14900
F1195       F  0.34415904  0.45634503  0.33879404    -0.12400
F1196       F  0.43556022  0.44728820  0.38438997    -0.12900
F1197       F  0.39878988  0.48465856  0.32499380    -0.15200
F1198       F  0.37738098  0.42142167  0.40236797    -0.13800
F1199       F  0.31506666  0.43363295  0.43873424    -0.13800
F1200       F  0.32778868  0.36315757  0.55345091    -0.15200
C1201       C  0.61373577  0.44517457  0.32127538     0.14900
C1202       C  0.61672005  0.42447673  0.30054431     0.01800
C1203       C  0.60424073  0.41916113  0.42490039     0.16800
C1204       C  0.57519450  0.43339950  0.42036283     0.26200
C1205       C  0.55791760  0.45346715  0.29330820    -0.40100
C1206       C  0.58398104  0.45914785  0.31874847     0.33300
C1207       C  0.64829169  0.40974716  0.30239601     0.01900
F1208       F  0.61210763  0.40296601  0.39779554    -0.12400
F1209       F  0.58086772  0.47846946  0.34028498    -0.12900
C1210       C  0.64634096  0.38710386  0.31968338     0.16800
C1211       C  0.67648978  0.37392616  0.32435703     0.26200
C1212       C  0.70893258  0.38262560  0.30977423    -0.40000
C1213       C  0.71060194  0.40470348  0.29026569     0.33200
C1214       C  0.68059178  0.41825964  0.28695912     0.14900
F1215       F  0.61529784  0.37798747  0.33312029    -0.12400
F1216       F  0.74163471  0.41379103  0.27692343    -0.12900
F1217       F  0.67403880  0.35275520  0.34364285    -0.15200
F1218       F  0.68728489  0.42790372  0.40962919    -0.13800
F1219       F  0.63936965  0.45160031  0.34445912    -0.13800
F1220       F  0.55540801  0.43068004  0.38878012    -0.15200
C1221       C  0.85238544  0.44743579  0.42637584     0.14900
C1222       C  0.83114088  0.46519105  0.41117491     0.01800
C1223       C  0.80375115  0.45953507  0.38769519     0.16800
C1224       C  0.79867034  0.43666406  0.37778436     0.26200
C1225       C  0.82051815  0.41894876  0.39178970    -0.40100
C1226       C  0.84679868  0.42430544  0.41710054     0.33300
C1227       C  0.83961904  0.48994321  0.41411817     0.01900
F1228       F  0.78318064  0.47645946  0.37232772    -0.12400
F1229       F  0.86844506  0.40743801  0.43042746    -0.12900
C1230       C  0.86551958  0.49972566  0.38767588     0.16800
C1231       C  0.86574394  0.52361538  0.37863197     0.26200
C1232       C  0.84029061  0.53808020  0.39638022    -0.40000
C1233       C  0.81739994  0.52858625  0.42687683     0.33200
C1234       C  0.81666774  0.50458279  0.43515414     0.14900
F1235       F  0.88803146  0.48584151  0.36713844    -0.12400
F1236       F  0.80880018  0.54117117  0.27654268    -0.12900
F1237       F  0.88915073  0.53231556  0.35017660    -0.15200
F1238       F  0.79135337  0.49539677  0.46071418    -0.13800
F1239       F  0.87922357  0.45261411  0.44873628    -0.13800
F1240       F  0.77271633  0.43185273  0.35379939    -0.15200
C1241       C  0.62678774  0.51018427  0.26275047     0.14900
C1242       C  0.62572285  0.53290236  0.27685549     0.01800
C1243       C  0.59438551  0.54174380  0.46543205     0.16800
C1244       C  0.56661570  0.52641913  0.46510253     0.26200
C1245       C  0.56995355  0.50510088  0.44563018    -0.40100
C1246       C  0.59615143  0.49817324  0.25661334     0.33300
C1247       C  0.65824385  0.54622959  0.28402628     0.01900
F1248       F  0.58758460  0.56367878  0.47680729    -0.12400
F1249       F  0.59928677  0.47765838  0.23881951    -0.12900
C1250       C  0.68857434  0.54518963  0.25832812     0.16800
C1251       C  0.71822519  0.55801689  0.26543877     0.26200
C1252       C  0.71830221  0.57279357  0.29764096    -0.40000
C1253       C  0.68808308  0.57419807  0.32287254     0.33200
C1254       C  0.65915406  0.56050883  0.31714614     0.14900
F1255       F  0.68522724  0.53964112  0.39402476    -0.12400
F1256       F  0.68659331  0.58853386  0.35398132    -0.12900
F1257       F  0.74304032  0.56338681  0.40595620    -0.15200
F1258       F  0.63272760  0.56044248  0.34562806    -0.13800
F1259       F  0.65729690  0.49879599  0.25662578    -0.13800
F1260       F  0.53637379  0.53278211  0.48427289    -0.15200
C1261       C  0.18430960  0.44714123  0.50467679     0.14900
C1262       C  0.16369761  0.46331906  0.48439722     0.01800
C1263       C  0.13954858  0.45539834  0.45842536     0.16800
C1264       C  0.13937361  0.43206809  0.44868248     0.26200
C1265       C  0.16306475  0.41626097  0.46534784    -0.40100
C1266       C  0.18356488  0.42371872  0.49575206     0.33300
C1267       C  0.17303605  0.48816739  0.48239033     0.01900
F1268       F  0.12507444  0.46865437  0.58653256    -0.12400
F1269       F  0.20465148  0.40872305  0.51506975    -0.12900
C1270       C  0.20531988  0.49467119  0.46407256     0.16800
C1271       C  0.21230581  0.51784642  0.45327466     0.26200
C1272       C  0.18731409  0.53514153  0.46130864    -0.40000
C1273       C  0.15595770  0.52879567  0.48242222     0.33200
C1274       C  0.14868302  0.50541688  0.49239516     0.14900
F1275       F  0.22896380  0.47827142  0.45317471    -0.12400
F1276       F  0.13153015  0.54503339  0.49142060    -0.12900
F1277       F  0.24252012  0.52296707  0.43210439    -0.15200
F1278       F  0.11721676  0.49951926  0.50984502    -0.13800
F1279       F  0.20726471  0.45436353  0.53064950    -0.13800
F1280       F  0.11822670  0.42555005  0.42025880    -0.15200
C1281       C  0.35041004  0.57173767  0.47663508     0.14900
C1282       C  0.35161411  0.54745361  0.47427727     0.01800
C1283       C  0.32157087  0.53450508  0.48446909     0.16800
C1284       C  0.29082138  0.54550594  0.49700591     0.26200
C1285       C  0.28903994  0.56988598  0.49851822    -0.40100
C1286       C  0.31933097  0.58289837  0.48850038     0.33300
C1287       C  0.38439846  0.53508699  0.46384286     0.01900
F1288       F  0.32251488  0.51096748  0.48416613    -0.12400
F1289       F  0.31907506  0.60634119  0.49083402    -0.12900
C1290       C  0.40350552  0.54171337  0.29676476     0.16800
C1291       C  0.43349549  0.52821548  0.29281445     0.26200
C1292       C  0.44308691  0.50665929  0.44933414    -0.40000
C1293       C  0.41696671  0.50811545  0.42215527     0.33200
C1294       C  0.38765856  0.52204919  0.42935534     0.14900
F1295       F  0.40171160  0.55835251  0.32422473    -0.12400
F1296       F  0.42027440  0.49615305  0.38850753    -0.12900
F1297       F  0.45973119  0.53223534  0.31680798    -0.15200
F1298       F  0.36240274  0.52280192  0.40280853    -0.13800
F1299       F  0.37936705  0.58459764  0.46769731    -0.13800
F1300       F  0.26342415  0.53207149  0.51014629    -0.15200
C1301       C  0.06125001  0.62043309  0.44511905     0.14900
C1302       C  0.03086286  0.60810326  0.30925206     0.01800
C1303       C  0.03934112  0.58910814  0.33442544     0.16800
C1304       C  0.07256799  0.58694063  0.34836215     0.26200
C1305       C  0.09940339  0.60253458  0.49346790    -0.40100
C1306       C  0.09414580  0.61824885  0.46094637     0.33300
C1307       C  0.99423197  0.61212475  0.30065001     0.01900
F1308       F  0.01481775  0.57328235  0.34717592    -0.12400
F1309       F  0.12023578  0.63229195  0.44584345    -0.12900
C1310       C  0.97712282  0.59317540  0.43610901     0.16800
C1311       C  0.94093482  0.59523535  0.43580457     0.26200
C1312       C  0.92153454  0.61439907  0.29936258    -0.40000
C1313       C  0.93985856  0.63108476  0.31903646     0.33200
C1314       C  0.97588066  0.62998266  0.31959022     0.14900
F1315       F  0.99236927  0.57280797  0.42622687    -0.12400
F1316       F  0.92265636  0.64768073  0.33985001    -0.12900
F1317       F  0.92222182  0.57690801  0.42497685    -0.15200
F1318       F  0.99258069  0.64516822  0.34156151    -0.13800
F1319       F  0.05639154  0.63626005  0.41477770    -0.13800
F1320       F  0.07927528  0.56907727  0.37454260    -0.15200
C1321       C  0.73690119  0.19536888  0.54488728     0.14900
C1322       C  0.72360890  0.21628438  0.52911461     0.01800
C1323       C  0.69510310  0.21563943  0.50509772     0.16800
C1324       C  0.68219668  0.19434323  0.49380619     0.26200
C1325       C  0.69656110  0.17323051  0.50803670    -0.40100
C1326       C  0.72322050  0.17404744  0.53495687     0.33300
C1327       C  0.74259301  0.23834099  0.53253518     0.01900
F1328       F  0.68068428  0.23571186  0.49132192    -0.12400
F1329       F  0.73772203  0.15420452  0.54964558    -0.12900
C1330       C  0.77322835  0.24238595  0.50872856     0.16800
C1331       C  0.78981255  0.26391210  0.50818418     0.26200
C1332       C  0.76913017  0.28134875  0.36349043    -0.40000
C1333       C  0.74192741  0.27521606  0.39165808     0.33200
C1334       C  0.72694771  0.25311739  0.39200446     0.14900
F1335       F  0.78619538  0.22575430  0.48457878    -0.12400
F1336       F  0.72828347  0.29105513  0.41692613    -0.12900
F1337       F  0.81856403  0.26756588  0.48353221    -0.15200
F1338       F  0.69889087  0.24812032  0.41690086    -0.13800
F1339       F  0.76411889  0.19560467  0.56868532    -0.13800
F1340       F  0.65620829  0.19443942  0.46823959    -0.15200
C1341       C  0.21479274  0.25055903  0.49425676     0.14900
C1342       C  0.24181561  0.23934606  0.47282835     0.01800
C1343       C  0.26185809  0.25193211  0.44330537     0.16800
C1344       C  0.25374752  0.27499663  0.43340754     0.26200
C1345       C  0.22528067  0.28598276  0.45288417    -0.40100
C1346       C  0.20672840  0.27384069  0.48460236     0.33300
C1347       C  0.24636401  0.21390657  0.47632947     0.01900
F1348       F  0.28824422  0.24141174  0.42250639    -0.12400
F1349       F  0.17955913  0.28396474  0.50460315    -0.12900
C1350       C  0.22736550  0.20002675  0.45223632     0.16800
C1351       C  0.23586204  0.17666609  0.44832231     0.26200
C1352       C  0.26349283  0.16663009  0.46870056    -0.40000
C1353       C  0.28139620  0.18026140  0.49456612     0.33200
C1354       C  0.27300968  0.20383984  0.49809408     0.14900
F1355       F  0.20185351  0.20950779  0.43051843    -0.12400
F1356       F  0.31249389  0.17693969  0.34040112    -0.12900
F1357       F  0.21769247  0.16404335  0.42345277    -0.15200
F1358       F  0.29643718  0.22321504  0.33867938    -0.13800
F1359       F  0.19534661  0.23867193  0.52323739    -0.13800
F1360       F  0.27334218  0.28640438  0.40396780    -0.15200
C1361       C  0.51724138  0.09040336  0.39190094     0.14900
C1362       C  0.50829688  0.10828769  0.36459079     0.01800
C1363       C  0.53373442  0.12454967  0.35063253     0.16800
C1364       C  0.57240725  0.12696860  0.54986004     0.26200
C1365       C  0.57478439  0.10683277  0.39553957    -0.40100
C1366       C  0.54998530  0.08976748  0.40736775     0.33300
C1367       C  0.47101317  0.11223786  0.35811819     0.01900
F1368       F  0.52794096  0.14830253  0.51778275    -0.12400
F1369       F  0.55700926  0.07282734  0.43515635    -0.12900
C1370       C  0.45433767  0.13111557  0.37613789     0.16800
C1371       C  0.41835155  0.13120171  0.38320876     0.26200
C1372       C  0.39827257  0.11258918  0.37175195    -0.40000
C1373       C  0.41450544  0.09516422  0.34921117     0.33200
C1374       C  0.45072119  0.09478701  0.34305012     0.14900
F1375       F  0.47320618  0.14807779  0.39137322    -0.12400
F1376       F  0.39588481  0.07708524  0.33726278    -0.12900
F1377       F  0.40345543  0.14859899  0.40420829    -0.15200
F1378       F  0.46614909  0.07618077  0.32606662    -0.13800
F1379       F  0.49321322  0.07460508  0.40629589    -0.13800
F1380       F  0.59533455  0.14400733  0.53805116    -0.15200
C1381       C  0.08941957  0.01931412  0.40991829     0.14900
C1382       C  0.10438865  0.03442948  0.37977887     0.01800
C1383       C  0.08747335  0.03761500  0.34381960     0.16800
C1384       C  0.06170104  0.02783233  0.50859507     0.26200
C1385       C  0.04235969  0.01036169  0.36839552    -0.40100
C1386       C  0.05838669  0.00796041  0.40462252     0.33300
C1387       C  0.13762775  0.04643338  0.38644295     0.01900
F1388       F  0.09064913  0.06384642  0.49418440    -0.12400
F1389       F  0.04365330  0.99440596  0.43488982    -0.12900
C1390       C  0.16509524  0.03379897  0.40280150     0.16800
C1391       C  0.19430700  0.04514282  0.41462223     0.26200
C1392       C  0.19902287  0.06898637  0.40584617    -0.40000
C1393       C  0.17237274  0.08170007  0.38815110     0.33200
C1394       C  0.14146686  0.07064781  0.37960701     0.14900
F1395       F  0.16380244  0.01029487  0.40735522    -0.12400
F1396       F  0.17543988  0.10500167  0.38138017    -0.12900
F1397       F  0.21816042  0.03260254  0.43451250    -0.15200
F1398       F  0.11493517  0.08374671  0.36610993    -0.13800
F1399       F  0.10512069  0.01532711  0.44457592    -0.13800
F1400       F  0.03670238  0.03539470  0.48425835    -0.15200
C1401       C  0.79177435  0.03642532  0.39696140     0.14900
C1402       C  0.82082889  0.04854544  0.38020042     0.01800
C1403       C  0.84481235  0.07338747  0.56352848     0.16800
C1404       C  0.81439916  0.08622661  0.57201935     0.26200
C1405       C  0.78220156  0.07495288  0.57808043    -0.40100
C1406       C  0.78110416  0.05064247  0.57628892     0.33300
C1407       C  0.85404633  0.03606265  0.37330036     0.01900
F1408       F  0.87553899  0.08464969  0.55733763    -0.12400
F1409       F  0.73425967  0.03607301  0.42532239    -0.12900
C1410       C  0.87832558  0.02227040  0.51747928     0.16800
C1411       C  0.90689548  0.00762536  0.51056671     0.26200
C1412       C  0.91528826  0.00908526  0.36545229    -0.40000
C1413       C  0.91190936  0.02652031  0.39374891     0.33200
C1414       C  0.88170525  0.03990701  0.39744243     0.14900
F1415       F  0.85405821  0.02436393  0.48985778    -0.12400
F1416       F  0.93747573  0.03010022  0.41891166    -0.12900
F1417       F  0.91050374  0.99659363  0.47585922    -0.15200
F1418       F  0.87896639  0.05611957  0.42561882    -0.13800
F1419       F  0.79386253  0.01326489  0.40582805    -0.13800
F1420       F  0.81631686  0.10963764  0.57396136    -0.15200
C1421       C  0.71020326  0.74510184  0.50989974     0.14900
C1422       C  0.74110031  0.74463362  0.35155254     0.01800
C1423       C  0.74553094  0.76255717  0.37799018     0.16800
C1424       C  0.73008781  0.78445644  0.37110009     0.26200
C1425       C  0.71053375  0.78874885  0.33732954    -0.40100
C1426       C  0.69582903  0.76696237  0.50227243     0.33300
C1427       C  0.75956495  0.72191752  0.35493322     0.01900
F1428       F  0.76602016  0.75925272  0.40922973    -0.12400
F1429       F  0.66998182  0.76899650  0.47657918    -0.12900
C1430       C  0.78083732  0.71476294  0.32234079     0.16800
C1431       C  0.79274959  0.69190507  0.32073401     0.26200
C1432       C  0.78419994  0.67553745  0.35212291    -0.40000
C1433       C  0.76491114  0.68308449  0.38617476     0.33200
C1434       C  0.75278706  0.70612885  0.38757361     0.14900
F1435       F  0.78959326  0.73362293  0.47503803    -0.12400
F1436       F  0.75601859  0.66789322  0.41705855    -0.12900
F1437       F  0.81758107  0.69082236  0.46554663    -0.15200
F1438       F  0.73283984  0.71262724  0.41977875    -0.13800
F1439       F  0.69818725  0.72660741  0.49124693    -0.13800
F1440       F  0.73580349  0.80173615  0.39610222    -0.15200
C1441       C  0.63074793  0.95964000  0.51908518     0.14900
C1442       C  0.65460357  0.96835346  0.54471272     0.01800
C1443       C  0.67755917  0.95290006  0.56323957     0.16800
C1444       C  0.67862277  0.92951948  0.55371515     0.26200
C1445       C  0.65658176  0.92114810  0.52556733    -0.40100
C1446       C  0.63155454  0.93624846  0.50982090     0.33300
C1447       C  0.65923823  0.99379539  0.54643824     0.01900
F1448       F  0.70033952  0.96076153  0.58884788    -0.12400
F1449       F  0.60896367  0.92870861  0.48371436    -0.12900
C1450       C  0.63123633  0.00846075  0.55667607     0.16800
C1451       C  0.63406094  0.03254656  0.54966199     0.26200
C1452       C  0.66505800  0.04235214  0.53260078    -0.40000
C1453       C  0.69395489  0.02769791  0.52578949     0.33200
C1454       C  0.69089918  0.00371235  0.53209464     0.14900
F1455       F  0.60049151  0.99934767  0.57114177    -0.12400
F1456       F  0.72444706  0.03621866  0.50930187    -0.12900
F1457       F  0.60583430  0.04605339  0.55725886    -0.15200
F1458       F  0.71801387  0.99003282  0.52037756    -0.13800
F1459       F  0.60853641  0.97415883  0.50030470    -0.13800
F1460       F  0.68687956  0.91264599  0.41027018    -0.15200
C1461       C  0.89135605  0.91814420  0.34993213     0.14900
C1462       C  0.86178067  0.92258278  0.37442091     0.01800
C1463       C  0.86019495  0.94288812  0.39595873     0.16800
C1464       C  0.88814663  0.95829943  0.39375835     0.26200
C1465       C  0.91749191  0.95459560  0.36774709    -0.40100
C1466       C  0.91825917  0.93432875  0.34536640     0.33300
C1467       C  0.83312238  0.90564959  0.37961473     0.01900
F1468       F  0.83210045  0.94723342  0.42071915    -0.12400
F1469       F  0.93737424  0.93971749  0.45944499    -0.12900
C1470       C  0.83637499  0.88577971  0.40480118     0.16800
C1471       C  0.80709643  0.87268995  0.41742723     0.26200
C1472       C  0.77439785  0.87877699  0.40378196    -0.40000
C1473       C  0.77200186  0.89708020  0.37490495     0.33200
C1474       C  0.80110288  0.91066480  0.36340427     0.14900
F1475       F  0.86752674  0.87985723  0.41900844    -0.12400
F1476       F  0.74104473  0.90313289  0.36042454    -0.12900
F1477       F  0.81040114  0.85463669  0.44432315    -0.15200
F1478       F  0.79769014  0.92940919  0.33799732    -0.13800
F1479       F  0.88104324  0.91140849  0.47355558    -0.13800
F1480       F  0.88678987  0.97613389  0.41856179    -0.15200
C1481       C  0.26970971  0.74599477  0.43031764     0.14900
C1482       C  0.25094643  0.73558318  0.46325844     0.01800
C1483       C  0.24299338  0.74862095  0.49698047     0.16800
C1484       C  0.25193147  0.77225217  0.49674855     0.26200
C1485       C  0.26902403  0.78315042  0.46268416    -0.40100
C1486       C  0.27864444  0.76944532  0.42988600     0.33300
C1487       C  0.23686174  0.71195396  0.45977411     0.01900
F1488       F  0.22552932  0.73867223  0.52950836    -0.12400
F1489       F  0.29637948  0.77871299  0.39691011    -0.12900
C1490       C  0.25355361  0.69225580  0.47566888     0.16800
C1491       C  0.24330100  0.66995076  0.46605314     0.26200
C1492       C  0.21671307  0.66708868  0.43960379    -0.40000
C1493       C  0.19894403  0.68692781  0.42545221     0.33200
C1494       C  0.20872318  0.70906035  0.43590792     0.14900
F1495       F  0.28079767  0.69465363  0.49890670    -0.12400
F1496       F  0.16630458  0.68049180  0.57917581    -0.12900
F1497       F  0.26074419  0.65127565  0.48077781    -0.15200
F1498       F  0.19134720  0.72790420  0.42181234    -0.13800
F1499       F  0.27878582  0.73341746  0.39804922    -0.13800
F1500       F  0.24271507  0.78458919  0.52922058    -0.15200
C1501       C  0.27798926  0.95481081  0.53266450     0.14900
C1502       C  0.30143394  0.95836660  0.34821036     0.01800
C1503       C  0.32388078  0.94112963  0.36268903     0.16800
C1504       C  0.31917886  0.91784371  0.35380187     0.26200
C1505       C  0.29219450  0.91164514  0.33001545    -0.40100
C1506       C  0.26896946  0.92881069  0.31708743     0.33300
C1507       C  0.30971155  0.98328254  0.35012143     0.01900
F1508       F  0.35103195  0.94701447  0.38407004    -0.12400
F1509       F  0.23759828  0.92508399  0.52286520    -0.12900
C1510       C  0.28734766  0.99820608  0.37128886     0.16800
C1511       C  0.29026068  0.02226717  0.36463930     0.26200
C1512       C  0.31483394  0.03177619  0.33611432    -0.40000
C1513       C  0.33907783  0.01681247  0.31751266     0.33200
C1514       C  0.33660012  0.99277058  0.32465332     0.14900
F1515       F  0.26115754  0.98943935  0.39609959    -0.12400
F1516       F  0.35857506  0.02034414  0.43858757    -0.12900
F1517       F  0.26689761  0.03620766  0.38313349    -0.15200
F1518       F  0.35283177  0.97558026  0.46578845    -0.13800
F1519       F  0.25204366  0.97061500  0.52919488    -0.13800
F1520       F  0.34223915  0.90168619  0.36617370    -0.15200
C1521       C  0.17319575  0.93203107  0.39102260     0.14900
C1522       C  0.14238618  0.92059335  0.38328939     0.01800
C1523       C  0.14283913  0.89632437  0.38082163     0.16800
C1524       C  0.17312545  0.88361846  0.38726091     0.26200
C1525       C  0.20381281  0.89493835  0.39592491    -0.40100
C1526       C  0.20358457  0.91934748  0.39737518     0.33300
C1527       C  0.10944212  0.93373375  0.37922523     0.01900
F1528       F  0.11374062  0.88485777  0.37239947    -0.12400
F1529       F  0.23209095  0.93087451  0.40759113    -0.12900
C1530       C  0.10685361  0.95157346  0.34970055     0.16800
C1531       C  0.07539635  0.96326422  0.34506872     0.26200
C1532       C  0.04612516  0.95824015  0.37097724    -0.40000
C1533       C  0.04904924  0.94053666  0.40098980     0.33200
C1534       C  0.08015199  0.92823474  0.40464675     0.14900
F1535       F  0.13462133  0.95736697  0.32467367    -0.12400
F1536       F  0.02206241  0.93544581  0.42755239    -0.12900
F1537       F  0.07351476  0.97938321  0.31481516    -0.15200
F1538       F  0.08192365  0.91127622  0.43384053    -0.13800
F1539       F  0.17337514  0.95538486  0.39473524    -0.13800
F1540       F  0.17218805  0.86015282  0.38566135    -0.15200
C1541       C  0.44804382  0.83208894  0.39201722     0.14900
C1542       C  0.46983043  0.85075430  0.39918080     0.01800
C1543       C  0.45506335  0.87274869  0.40536597     0.16800
C1544       C  0.41907959  0.87562135  0.40726874     0.26200
C1545       C  0.39732173  0.85672981  0.40208207    -0.40100
C1546       C  0.41199687  0.83512398  0.39307943     0.33300
C1547       C  0.50722410  0.84694134  0.40523735     0.01900
F1548       F  0.46395508  0.86489770  0.29928830    -0.12400
F1549       F  0.39134575  0.81648834  0.38909061    -0.12900
C1550       C  0.53264246  0.85973721  0.38235284     0.16800
C1551       C  0.56735176  0.85869948  0.39226711     0.26200
C1552       C  0.57733361  0.84485105  0.42539696    -0.40000
C1553       C  0.55202828  0.83112531  0.44696416     0.33200
C1554       C  0.51737275  0.83218533  0.43694991     0.14900
F1555       F  0.52363853  0.87382991  0.35112861    -0.12400
F1556       F  0.56061245  0.81706153  0.47841538    -0.12900
F1557       F  0.59070771  0.87236489  0.37082795    -0.15200
F1558       F  0.49333524  0.81967774  0.45959577    -0.13800
F1559       F  0.46157653  0.81064936  0.38626956    -0.13800
F1560       F  0.39400662  0.86600757  0.30663187    -0.15200
O1561       O  0.25473828  0.85766678  0.55321775    -0.55600
C1562       C  0.36501570  0.84677822  0.58284369     0.77000
O1563       O  0.26663133  0.89000261  0.48647907    -0.56800
C1564       C  0.22979175  0.86323292  0.57734408     0.77000
C1565       C  0.27783214  0.80006889  0.63087498     0.79400
Cd1566     Cd  0.29289793  0.84731309  0.60794523     1.37500
O1567       O  0.34240618  0.84301070  0.55784039    -0.55600
O1568       O  0.28697475  0.80701726  0.59556448    -0.54400
C1569       C  0.29273799  0.89282143  0.50666700     0.79400
O1570       O  0.27182700  0.82182896  0.48934509    -0.56800
O1571       O  0.35194116  0.86295108  0.45059377    -0.55200
O1572       O  0.23310526  0.85822930  0.61404135    -0.55200
O1573       O  0.29337293  0.88898584  0.60635302    -0.48800
O1574       O  0.64446452  0.85112905  0.57268416    -0.55600
C1575       C  0.74889124  0.87251288  0.59274540     0.77000
O1576       O  0.68067960  0.88250145  0.52524855    -0.56800
C1577       C  0.61888528  0.84386435  0.59509685     0.77000
C1578       C  0.70224747  0.80999855  0.66178395     0.79400
Cd1579     Cd  0.68316759  0.85477052  0.62818107     1.37500
O1580       O  0.72632729  0.86441937  0.57129514    -0.55600
O1581       O  0.69407801  0.81324257  0.62598645    -0.54400
C1582       C  0.65518247  0.89595468  0.66378569     0.79400
O1583       O  0.69790225  0.82775948  0.52585562    -0.56800
O1584       O  0.74161074  0.87152470  0.62999526    -0.55200
O1585       O  0.62403354  0.84034048  0.63180891    -0.55200
O1586       O  0.65603815  0.89315841  0.62662507    -0.54400
C1587       C  0.02741914  0.96661468  0.51655952     0.04500
C1588       C  0.02812064  0.99077333  0.52438883     0.04500
C1589       C  0.99621071  0.00229876  0.53061930    -0.16000
C1590       C  0.96422729  0.99105804  0.52969343     0.04500
C1591       C  0.96359409  0.96732890  0.52047867     0.04500
C1592       C  0.99513641  0.95582439  0.51265002    -0.16000
H1593       H  0.99456565  0.93744265  0.50735476     0.06500
H1594       H  0.99610891  0.02044853  0.53789325     0.06500
O1595       O  0.34392596  0.10410749  0.55327188    -0.55600
C1596       C  0.23808901  0.08567885  0.57247824     0.77000
O1597       O  0.31147520  0.07438128  0.49572471    -0.56800
C1598       C  0.36578837  0.11398467  0.57371866     0.77000
C1599       C  0.27568958  0.14516947  0.63716798     0.79400
Cd1600     Cd  0.29916857  0.10102324  0.60928590     1.37500
O1601       O  0.26596685  0.08961011  0.55151561    -0.55600
O1602       O  0.27204011  0.13846332  0.60226175    -0.54400
C1603       C  0.32020932  0.05647981  0.47675817     0.79400
O1604       O  0.29099321  0.12957975  0.48359347    -0.56800
O1605       O  0.23845249  0.08977301  0.60912192    -0.55200
O1606       O  0.35546528  0.11927025  0.60866804    -0.55200
O1607       O  0.33232524  0.06455842  0.61894489    -0.54400
O1608       O  0.65889479  0.07868054  0.68313766    -0.55600
C1609       C  0.69646838  0.14789056  0.65839159     0.77000
O1610       O  0.69667914  0.07048525  0.75623565    -0.56800
C1611       C  0.67307479  0.06035765  0.67025722     0.77000
C1612       C  0.61764853  0.10681291  0.59026785     0.79400
Cd1613     Cd  0.68428852  0.10335094  0.62583806     1.37500
O1614       O  0.69704926  0.12939880  0.68032162    -0.55600
O1615       O  0.62152040  0.09957625  0.62579096    -0.54400
C1616       C  0.72556296  0.08031730  0.74889225     0.79400
O1617       O  0.63433509  0.11129427  0.74579071    -0.56800
O1618       O  0.68984387  0.14560503  0.62225129    -0.55200
O1619       O  0.69318706  0.06269801  0.63945778    -0.55200
O1620       O  0.74882522  0.10106077  0.61900620    -0.54400
O1621       O  0.22192677  0.57091689  0.68189179    -0.55600
C1622       C  0.13087146  0.59829790  0.68581745     0.77000
O1623       O  0.15986591  0.56981019  0.60176640    -0.56800
C1624       C  0.25124601  0.58054857  0.67955997     0.77000
C1625       C  0.20525027  0.63996499  0.59808504     0.79400
Cd1626     Cd  0.19517716  0.59741725  0.55788667     1.37500
O1627       O  0.15945487  0.60378372  0.66749754    -0.55600
O1628       O  0.18762762  0.63948455  0.73032809    -0.54400
C1629       C  0.18509669  0.55659816  0.60938075     0.79400
O1630       O  0.21207934  0.62051236  0.61471188    -0.56800
O1631       O  0.13303496  0.59496283  0.55026148    -0.55200
O1632       O  0.25582746  0.60107545  0.52806405    -0.55200
O1633       O  0.21474268  0.56387222  0.59710575    -0.54400
O1634       O  0.86420154  0.60474420  0.44285573    -0.55600
C1635       C  0.75094152  0.58963777  0.47533929     0.77000
O1636       O  0.82581052  0.58007483  0.55746717    -0.56800
C1637       C  0.88668490  0.61382076  0.46358336     0.77000
C1638       C  0.79803234  0.65205913  0.51698422     0.79400
Cd1639     Cd  0.81724055  0.60605882  0.49716940     1.37500
O1640       O  0.77419946  0.59535635  0.44843010    -0.55600
O1641       O  0.80225692  0.64586294  0.48120333    -0.54400
C1642       C  0.83456486  0.56295391  0.53642150     0.79400
O1643       O  0.80318548  0.63673990  0.54450728    -0.56800
O1644       O  0.75789266  0.59318204  0.51093113    -0.55200
O1645       O  0.87612988  0.62062404  0.49757586    -0.55200
O1646       O  0.83628050  0.56666362  0.49895931    -0.54400
C1647       C  0.46641033  0.49184071  0.60270342     0.04500
C1648       C  0.46656776  0.46777336  0.61423995     0.04500
C1649       C  0.49873998  0.45698761  0.61941490    -0.16000
C1650       C  0.53041199  0.46887346  0.61379267     0.04500
C1651       C  0.53075621  0.49298381  0.60209412     0.04500
C1652       C  0.49841407  0.50343950  0.59441378    -0.16000
H1653       H  0.49767564  0.52097983  0.58388527     0.06500
H1654       H  0.49924935  0.43907283  0.62966808     0.06500
O1655       O  0.14928602  0.36646745  0.67965112    -0.55600
C1656       C  0.25603303  0.37010025  0.69303236     0.77000
O1657       O  0.20028048  0.38185807  0.61398126    -0.56800
C1658       C  0.13739313  0.34593182  0.51843178     0.77000
C1659       C  0.21552851  0.30968644  0.60472061     0.79400
Cd1660     Cd  0.19815034  0.35283257  0.56316524     1.37500
O1661       O  0.23244821  0.36340724  0.67164552    -0.55600
O1662       O  0.22791852  0.31547618  0.57002433    -0.54400
C1663       C  0.17184296  0.39157592  0.60694224     0.79400
O1664       O  0.19436457  0.32385499  0.62083023    -0.56800
O1665       O  0.25399189  0.37266334  0.56223996    -0.55200
O1666       O  0.15226094  0.32882840  0.53529408    -0.55200
O1667       O  0.15380209  0.38190460  0.58237403    -0.54400
O1668       O  0.87039189  0.34058168  0.52546506    -0.55600
C1669       C  0.74807569  0.36813526  0.48588889     0.77000
O1670       O  0.81498503  0.39551650  0.67996044    -0.56800
C1671       C  0.88402972  0.34426729  0.49050654     0.77000
C1672       C  0.79072604  0.30540786  0.52700561     0.79400
Cd1673     Cd  0.81291710  0.35218023  0.51193434     1.37500
O1674       O  0.75245018  0.36207610  0.52207268    -0.55600
O1675       O  0.79159826  0.31914478  0.55569770    -0.54400
C1676       C  0.82240980  0.39591060  0.54559426     0.79400
O1677       O  0.79708162  0.31626141  0.65256990    -0.56800
O1678       O  0.77349226  0.36515230  0.46075011    -0.55200
O1679       O  0.86411716  0.35170503  0.46370605    -0.55200
O1680       O  0.82389414  0.37745374  0.56764152    -0.54400
C1681       C  0.05431695  0.32050561  0.48381018     0.14900
C1682       C  0.03292909  0.34030882  0.48165034     0.01800
C1683       C  0.04738788  0.36214205  0.48742822     0.16800
C1684       C  0.08199286  0.36407167  0.49682342     0.26200
C1685       C  0.10290415  0.34410873  0.50140284    -0.40100
C1686       C  0.08887874  0.32236729  0.49385109     0.33300
C1687       C  0.99484259  0.33822640  0.47836323     0.01900
F1688       F  0.02728434  0.38153296  0.48700074    -0.12400
F1689       F  0.10827404  0.30278114  0.49732937    -0.12900
C1690       C  0.97535373  0.32392999  0.50619991     0.16800
C1691       C  0.93923445  0.32497322  0.50827802     0.26200
C1692       C  0.92166080  0.34043996  0.48277825    -0.40000
C1693       C  0.94093401  0.35360278  0.45308363     0.33200
C1694       C  0.97725286  0.35244609  0.45083804     0.14900
F1695       F  0.99121222  0.31004901  0.53338879    -0.12400
F1696       F  0.92483316  0.36851275  0.42769729    -0.12900
F1697       F  0.92145135  0.31137038  0.53642711    -0.15200
F1698       F  0.99130318  0.36629791  0.57340081    -0.13800
F1699       F  0.04141365  0.29921385  0.47747915    -0.13800
F1700       F  0.09410045  0.38541595  0.50432040    -0.15200
C1701       C  0.31637795  0.41335784  0.63813438     0.14900
C1702       C  0.34861477  0.40651547  0.65200768     0.01800
C1703       C  0.35087849  0.38582257  0.67556796     0.16800
C1704       C  0.32074387  0.37347854  0.68825200     0.26200
C1705       C  0.28827010  0.38102896  0.67583125    -0.40100
C1706       C  0.28653084  0.40061531  0.64962169     0.33300
C1707       C  0.37912602  0.42179573  0.64329638     0.01900
F1708       F  0.38202321  0.37804784  0.68745830    -0.12400
F1709       F  0.25564032  0.40834868  0.63712288    -0.12900
C1710       C  0.39832961  0.43766836  0.50252302     0.16800
C1711       C  0.42823551  0.45080994  0.49316734     0.26200
C1712       C  0.43491059  0.45274648  0.62242469    -0.40000
C1713       C  0.43429319  0.43022369  0.60721586     0.33200
C1714       C  0.40709201  0.41482832  0.61820586     0.14900
F1715       F  0.38597835  0.43523604  0.54110124    -0.12400
F1716       F  0.45989948  0.42312123  0.58107164    -0.12900
F1717       F  0.44652619  0.45895883  0.52284205    -0.15200
F1718       F  0.40761242  0.39328360  0.60346556    -0.13800
F1719       F  0.31376706  0.43270787  0.61393791    -0.13800
F1720       F  0.32318381  0.35426709  0.71283816    -0.15200
C1721       C  0.61532502  0.43746991  0.48649009     0.14900
C1722       C  0.62474811  0.42129031  0.45763676     0.01800
C1723       C  0.59793212  0.42156539  0.60183493     0.16800
C1724       C  0.56832875  0.43508518  0.59692815     0.26200
C1725       C  0.56663433  0.45034270  0.44825796    -0.40100
C1726       C  0.58618183  0.45167904  0.48190415     0.33300
C1727       C  0.65550801  0.40625348  0.46212179     0.01900
F1728       F  0.60372142  0.40320296  0.57849067    -0.12400
F1729       F  0.57646580  0.46671338  0.51021160    -0.12900
C1730       C  0.65463827  0.38790253  0.49099624     0.16800
C1731       C  0.68439548  0.37472103  0.49750804     0.26200
C1732       C  0.71541527  0.37940643  0.47461092    -0.40000
C1733       C  0.71565897  0.39693223  0.44404876     0.33200
C1734       C  0.68595420  0.41034394  0.43798618     0.14900
F1735       F  0.62486487  0.38274114  0.51283702    -0.12400
F1736       F  0.74519456  0.40207266  0.42175520    -0.12900
F1737       F  0.68295551  0.35748731  0.52646583    -0.15200
F1738       F  0.68932209  0.44674979  0.61655918    -0.13800
F1739       F  0.63452320  0.43959802  0.51875216    -0.13800
F1740       F  0.54635339  0.42949658  0.56868680    -0.15200
C1741       C  0.85538599  0.44996893  0.59074826     0.14900
C1742       C  0.83156740  0.46646420  0.57670905     0.01800
C1743       C  0.80274502  0.45907607  0.55716589     0.16800
C1744       C  0.79906824  0.43576489  0.54905979     0.26200
C1745       C  0.82376625  0.41933947  0.56110323    -0.40100
C1746       C  0.85126326  0.42637626  0.58340122     0.33300
C1747       C  0.83991219  0.49140985  0.57389646     0.01900
F1748       F  0.77970582  0.47479478  0.54294308    -0.12400
F1749       F  0.87565043  0.41083973  0.59486367    -0.12900
C1750       C  0.85964153  0.49988716  0.54008912     0.16800
C1751       C  0.86017439  0.52355033  0.52983566     0.26200
C1752       C  0.84091531  0.53927375  0.55329740    -0.40000
C1753       C  0.82360375  0.53097189  0.58917593     0.33200
C1754       C  0.82287706  0.50709137  0.59924634     0.14900
F1755       F  0.87582006  0.48495215  0.51491133    -0.12400
F1756       F  0.79324988  0.54205130  0.44558806    -0.12900
F1757       F  0.87773182  0.53086081  0.49536663    -0.15200
F1758       F  0.80355241  0.49913603  0.63203761    -0.13800
F1759       F  0.88370600  0.45693283  0.60909918    -0.13800
F1760       F  0.77206475  0.42932167  0.52785959    -0.15200
C1761       C  0.63238994  0.51244352  0.43806122     0.14900
C1762       C  0.62817912  0.53474366  0.45344115     0.01800
C1763       C  0.58964886  0.54551922  0.61555340     0.16800
C1764       C  0.56037424  0.53123153  0.61519928     0.26200
C1765       C  0.56282192  0.50841090  0.60117481    -0.40100
C1766       C  0.60359072  0.49886501  0.43097347     0.33300
C1767       C  0.65862688  0.55045838  0.45726739     0.01900
F1768       F  0.58459455  0.56812446  0.62405234    -0.12400
F1769       F  0.60932029  0.48001107  0.40896349    -0.12900
C1770       C  0.68632066  0.55153268  0.42789341     0.16800
C1771       C  0.71585437  0.56477507  0.43305311     0.26200
C1772       C  0.71799128  0.57823707  0.46669773    -0.40000
C1773       C  0.68951918  0.57850003  0.49467694     0.33200
C1774       C  0.66069251  0.56439694  0.49065211     0.14900
F1775       F  0.68701548  0.53652442  0.55572149    -0.12400
F1776       F  0.68995740  0.59191616  0.52690166    -0.12900
F1777       F  0.74494865  0.55871265  0.57241806    -0.15200
F1778       F  0.63604184  0.56333727  0.52114609    -0.13800
F1779       F  0.66441580  0.50339692  0.43018103    -0.13800
F1780       F  0.52980777  0.53986581  0.63007877    -0.15200
C1781       C  0.17486089  0.44445799  0.66852512     0.14900
C1782       C  0.15858545  0.46074023  0.64353155     0.01800
C1783       C  0.14064592  0.45312071  0.61134500     0.16800
C1784       C  0.14196729  0.42981286  0.60181486     0.26200
C1785       C  0.16171379  0.41390777  0.62407366    -0.40100
C1786       C  0.17632446  0.42112934  0.65895622     0.33300
C1787       C  0.16676511  0.48558763  0.64492757     0.01900
F1788       F  0.10836995  0.46523759  0.76942696    -0.12400
F1789       F  0.19375116  0.40595137  0.68250368    -0.12900
C1790       C  0.20020433  0.49299018  0.63197594     0.16800
C1791       C  0.20690718  0.51645362  0.62355745     0.26200
C1792       C  0.18020652  0.53303788  0.62813834    -0.40000
C1793       C  0.14744883  0.52572246  0.64449137     0.33200
C1794       C  0.14067537  0.50208017  0.65236759     0.14900
F1795       F  0.22555966  0.47723824  0.62356329    -0.12400
F1796       F  0.12137905  0.54123350  0.65047547    -0.12900
F1797       F  0.23869502  0.52250521  0.60717699    -0.15200
F1798       F  0.10818768  0.49515134  0.66489856    -0.13800
F1799       F  0.19166927  0.45149805  0.70029490    -0.13800
F1800       F  0.12705795  0.42341803  0.56831584    -0.15200
C1801       C  0.33849578  0.56991437  0.62541279     0.14900
C1802       C  0.34118840  0.54562303  0.63034396     0.01800
C1803       C  0.31383903  0.53309128  0.65014148     0.16800
C1804       C  0.28447765  0.54461724  0.66532398     0.26200
C1805       C  0.28174011  0.56892125  0.66083615    -0.40100
C1806       C  0.30906539  0.58153982  0.64090277     0.33300
C1807       C  0.37386326  0.53345480  0.61915825     0.01900
F1808       F  0.31637529  0.50975058  0.65666838    -0.12400
F1809       F  0.30739530  0.60503230  0.63670020    -0.12900
C1810       C  0.41119070  0.53430437  0.49043977     0.16800
C1811       C  0.44014994  0.52004383  0.48342386     0.26200
C1812       C  0.43468666  0.50676817  0.60557082    -0.40000
C1813       C  0.40480125  0.50252964  0.58482359     0.33200
C1814       C  0.37463091  0.51573249  0.59169190     0.14900
F1815       F  0.40871710  0.54675712  0.52388919    -0.12400
F1816       F  0.40417316  0.48523241  0.55900867    -0.12900
F1817       F  0.46499846  0.51882396  0.51040539    -0.15200
F1818       F  0.34592083  0.51098171  0.57205331    -0.13800
F1819       F  0.36462590  0.58233281  0.60612774    -0.13800
F1820       F  0.25952404  0.53206581  0.68652942    -0.15200
C1821       C  0.05692145  0.61487830  0.62090206     0.14900
C1822       C  0.03333709  0.60674845  0.46123417     0.01800
C1823       C  0.03916519  0.59033794  0.49229679     0.16800
C1824       C  0.07162533  0.58833800  0.50835419     0.26200
C1825       C  0.09791164  0.59758851  0.66595709    -0.40100
C1826       C  0.09045371  0.61362090  0.63477067     0.33300
C1827       C  0.99710434  0.61115360  0.45004797     0.01900
F1828       F  0.01273995  0.57699872  0.50867095    -0.12400
F1829       F  0.11471176  0.62912604  0.61989965    -0.12900
C1830       C  0.97417875  0.58859089  0.61126772     0.16800
C1831       C  0.93792730  0.59047752  0.61321168     0.26200
C1832       C  0.92407304  0.61490089  0.45109152    -0.40000
C1833       C  0.94424912  0.63354462  0.46220302     0.33200
C1834       C  0.98046687  0.63182892  0.46106445     0.14900
F1835       F  0.98972081  0.57067215  0.59226524    -0.12400
F1836       F  0.92874458  0.65283781  0.47678997    -0.12900
F1837       F  0.91904428  0.57408610  0.59644080    -0.15200
F1838       F  0.99900298  0.64944463  0.47477238    -0.13800
F1839       F  0.04920318  0.63156867  0.59299226    -0.13800
F1840       F  0.07563411  0.57266249  0.53915977    -0.15200
C1841       C  0.74088211  0.19558389  0.71046758     0.14900
C1842       C  0.72732765  0.21550255  0.69139069     0.01800
C1843       C  0.70021281  0.21312106  0.66581830     0.16800
C1844       C  0.68920372  0.19109612  0.65616558     0.26200
C1845       C  0.70423203  0.17100854  0.67328253    -0.40100
C1846       C  0.72899884  0.17347009  0.70199781     0.33300
C1847       C  0.74480804  0.23823915  0.69280704     0.01900
F1848       F  0.68517754  0.23221804  0.64922558    -0.12400
F1849       F  0.74361412  0.15446621  0.71955506    -0.12900
C1850       C  0.76737424  0.24561409  0.66054975     0.16800
C1851       C  0.78259707  0.26756609  0.65947859     0.26200
C1852       C  0.77656085  0.28161709  0.53234877    -0.40000
C1853       C  0.74700786  0.27710976  0.55790538     0.33200
C1854       C  0.72965809  0.25583165  0.55722454     0.14900
F1855       F  0.77433794  0.23153324  0.62967756    -0.12400
F1856       F  0.73366943  0.29383004  0.58162180    -0.12900
F1857       F  0.80424329  0.27394299  0.62760400    -0.15200
F1858       F  0.69957975  0.25265171  0.57949357    -0.13800
F1859       F  0.76704441  0.19749971  0.73541087    -0.13800
F1860       F  0.66435161  0.18941796  0.62941960    -0.15200
C1861       C  0.20746791  0.25116357  0.66032002     0.14900
C1862       C  0.23992133  0.24115445  0.65035930     0.01800
C1863       C  0.26557182  0.25486667  0.62958218     0.16800
C1864       C  0.25810551  0.27761071  0.61644667     0.26200
C1865       C  0.22498203  0.28720715  0.62435942    -0.40100
C1866       C  0.20022173  0.27411436  0.64788754     0.33300
C1867       C  0.24515309  0.21567729  0.65477314     0.01900
F1868       F  0.29701875  0.24561693  0.61918272    -0.12400
F1869       F  0.16809283  0.28283616  0.65613143    -0.12900
C1870       C  0.22526367  0.20112419  0.63271567     0.16800
C1871       C  0.23393598  0.17775300  0.62961200     0.26200
C1872       C  0.26286337  0.16837694  0.64826842    -0.40000
C1873       C  0.28128055  0.18243916  0.67293782     0.33200
C1874       C  0.27257933  0.20602564  0.67594736     0.14900
F1875       F  0.19900944  0.20995891  0.61145306    -0.12400
F1876       F  0.30856586  0.17127151  0.51406441    -0.12900
F1877       F  0.21482898  0.16445795  0.60674475    -0.15200
F1878       F  0.29201056  0.21713610  0.52103075    -0.13800
F1879       F  0.18208952  0.23823537  0.67996238    -0.13800
F1880       F  0.28297467  0.29000473  0.59478306    -0.15200
C1881       C  0.52362266  0.09311101  0.57632990     0.14900
C1882       C  0.51301172  0.11256656  0.55348115     0.01800
C1883       C  0.53773152  0.12930804  0.53973985     0.16800
C1884       C  0.56285307  0.12428091  0.72334739     0.26200
C1885       C  0.58258858  0.10805976  0.57452864    -0.40100
C1886       C  0.55787619  0.09105516  0.58726495     0.33300
C1887       C  0.47543532  0.11668190  0.54958518     0.01900
F1888       F  0.51836256  0.14742339  0.69499926    -0.12400
F1889       F  0.56665601  0.07268350  0.61136519    -0.12900
C1890       C  0.45864538  0.13376145  0.57223978     0.16800
C1891       C  0.42249369  0.13421332  0.57721885     0.26200
C1892       C  0.40244026  0.11758454  0.55953638    -0.40000
C1893       C  0.41914551  0.10185816  0.53378535     0.33200
C1894       C  0.45543415  0.10133623  0.52905998     0.14900
F1895       F  0.47736965  0.14876227  0.59239781    -0.12400
F1896       F  0.40065569  0.08557043  0.51622474    -0.12900
F1897       F  0.40720985  0.15007342  0.60133742    -0.15200
F1898       F  0.47112843  0.08491605  0.50647683    -0.13800
F1899       F  0.50023546  0.07674425  0.59013653    -0.13800
F1900       F  0.58584689  0.14168918  0.71416951    -0.15200
C1901       C  0.11590071  0.01288487  0.55487938     0.14900
C1902       C  0.11712813  0.03516205  0.53622502     0.01800
C1903       C  0.08966752  0.04261256  0.51338224     0.16800
C1904       C  0.04987420  0.02356099  0.66244502     0.26200
C1905       C  0.06021626  0.00522113  0.52707341    -0.40100
C1906       C  0.08770565  0.99821342  0.55079028     0.33300
C1907       C  0.14753034  0.05027618  0.54022819     0.01900
F1908       F  0.09146727  0.05095650  0.63469365    -0.12400
F1909       F  0.08716662  0.97756949  0.57140597    -0.12900
C1910       C  0.18054369  0.04303046  0.52613471     0.16800
C1911       C  0.20992470  0.05591037  0.53324131     0.26200
C1912       C  0.20698620  0.07563182  0.55636606    -0.40000
C1913       C  0.17379259  0.08346399  0.56902412     0.33200
C1914       C  0.14420866  0.07119113  0.56014265     0.14900
F1915       F  0.18437523  0.02292448  0.50676726    -0.12400
F1916       F  0.17011476  0.10271777  0.59079608    -0.12900
F1917       F  0.24136253  0.04808803  0.51987570    -0.15200
F1918       F  0.11249799  0.07913692  0.57267630    -0.13800
F1919       F  0.14180786  0.00550515  0.57804658    -0.13800
F1920       F  0.03333819  0.02493223  0.62779591    -0.15200
C1921       C  0.81125803  0.03791664  0.56734404     0.14900
C1922       C  0.84339435  0.04910412  0.56096785     0.01800
C1923       C  0.81020698  0.06750882  0.69082107     0.16800
C1924       C  0.78083789  0.07956554  0.70535671     0.26200
C1925       C  0.75495345  0.06784832  0.72947340    -0.40100
C1926       C  0.75878159  0.04391119  0.73839463     0.33300
C1927       C  0.87510297  0.03505966  0.55225067     0.01900
F1928       F  0.83528291  0.07908214  0.66809288    -0.12400
F1929       F  0.75105141  0.03902437  0.58544820    -0.12900
C1930       C  0.85191108  0.01394624  0.66784427     0.16800
C1931       C  0.88295984  0.00133566  0.66515495     0.26200
C1932       C  0.93234583  0.00503127  0.53857159    -0.40000
C1933       C  0.92912796  0.01786720  0.57334290     0.33200
C1934       C  0.90115053  0.03307158  0.57975582     0.14900
F1935       F  0.82538026  0.00805581  0.64556666    -0.12400
F1936       F  0.95317580  0.01557142  0.60116352    -0.12900
F1937       F  0.88588437  0.98399379  0.63934966    -0.15200
F1938       F  0.89923538  0.04557954  0.61314266    -0.13800
F1939       F  0.80929304  0.01445575  0.56611308    -0.13800
F1940       F  0.77815693  0.10270731  0.69683854    -0.15200
C1941       C  0.71090567  0.74473197  0.67288268     0.14900
C1942       C  0.73796250  0.74244621  0.53482082     0.01800
C1943       C  0.74944366  0.76166674  0.55464125     0.16800
C1944       C  0.73479863  0.78369926  0.54732137     0.26200
C1945       C  0.70878499  0.78665338  0.51966620    -0.40100
C1946       C  0.69812564  0.76677577  0.66258350     0.33300
C1947       C  0.75760787  0.72040649  0.53486861     0.01900
F1948       F  0.77615085  0.75931068  0.57909436    -0.12400
F1949       F  0.67143660  0.76861521  0.63800286    -0.12900
C1950       C  0.78132902  0.71635527  0.50267878     0.16800
C1951       C  0.79559896  0.69431066  0.49780381     0.26200
C1952       C  0.78678511  0.67595687  0.52549460    -0.40000
C1953       C  0.76479862  0.68041460  0.55924296     0.33200
C1954       C  0.74998426  0.70247409  0.56361100     0.14900
F1955       F  0.80462245  0.73293892  0.65734341    -0.12400
F1956       F  0.75577665  0.66308041  0.58648826    -0.12900
F1957       F  0.83207052  0.68941542  0.65484974    -0.15200
F1958       F  0.72685753  0.70598378  0.59466979    -0.13800
F1959       F  0.69611775  0.72581185  0.65835191    -0.13800
F1960       F  0.74792331  0.80227009  0.56478671    -0.15200
C1961       C  0.62509941  0.95795266  0.66662355     0.14900
C1962       C  0.64079309  0.96513300  0.70067625     0.01800
C1963       C  0.65437812  0.94842287  0.72713794     0.16800
C1964       C  0.65559693  0.92507933  0.71742675     0.26200
C1965       C  0.64407874  0.91832804  0.68055014    -0.40100
C1966       C  0.62648849  0.93469764  0.65674494     0.33300
C1967       C  0.64963232  0.98984809  0.70318144     0.01900
F1968       F  0.66898524  0.95500967  0.76070292    -0.12400
F1969       F  0.61262585  0.92852269  0.62248032    -0.12900
C1970       C  0.62374052  0.00686036  0.70783141     0.16800
C1971       C  0.63190703  0.03040192  0.70079215     0.26200
C1972       C  0.66589998  0.03699252  0.68809295    -0.40000
C1973       C  0.69195654  0.01994275  0.68537265     0.33200
C1974       C  0.68400407  0.99664351  0.69349728     0.14900
F1975       F  0.59030253  0.00053542  0.71663629    -0.12400
F1976       F  0.72472178  0.02563424  0.67185392    -0.12900
F1977       F  0.60602496  0.04640514  0.70222720    -0.15200
F1978       F  0.70934479  0.98048182  0.68806797    -0.13800
F1979       F  0.61156415  0.97381902  0.64079156    -0.13800
F1980       F  0.70283905  0.91557313  0.57009567    -0.15200
C1981       C  0.89086013  0.92490908  0.50294234     0.14900
C1982       C  0.87288005  0.92373821  0.54069771     0.01800
C1983       C  0.88475843  0.93726500  0.57102408     0.16800
C1984       C  0.91428021  0.95111391  0.56412755     0.26200
C1985       C  0.93148164  0.95301098  0.52620623    -0.40100
C1986       C  0.91993996  0.93940970  0.49574773     0.33300
C1987       C  0.84255107  0.90800387  0.54969959     0.01900
F1988       F  0.86771215  0.93699098  0.60754159    -0.12400
F1989       F  0.93842996  0.92579537  0.65655674    -0.12900
C1990       C  0.84238846  0.89227293  0.58292353     0.16800
C1991       C  0.81205842  0.88062190  0.59668447     0.26200
C1992       C  0.78171881  0.88311886  0.57574045    -0.40000
C1993       C  0.78272064  0.89709985  0.54014401     0.33200
C1994       C  0.81268146  0.90977041  0.52765050     0.14900
F1995       F  0.87187366  0.88823374  0.60204000    -0.12400
F1996       F  0.75409967  0.89973631  0.51880984    -0.12900
F1997       F  0.81234836  0.86689148  0.63061083    -0.15200
F1998       F  0.81187052  0.92461465  0.49521881    -0.13800
F1999       F  0.88602370  0.89511278  0.67337685    -0.13800
F2000       F  0.92758055  0.96165801  0.59511002    -0.15200
C2001       C  0.27289059  0.73563107  0.61859107     0.14900
C2002       C  0.24446219  0.72943741  0.64464394     0.01800
C2003       C  0.22909131  0.74609371  0.66935961     0.16800
C2004       C  0.24154089  0.76895188  0.66723448     0.26200
C2005       C  0.26883780  0.77544186  0.63945144    -0.40100
C2006       C  0.28488764  0.75841993  0.61585704     0.33300
C2007       C  0.22889043  0.70634946  0.64162431     0.01900
F2008       F  0.20106175  0.74047724  0.69399286    -0.12400
F2009       F  0.31156607  0.76401661  0.58908987    -0.12900
C2010       C  0.24536545  0.68642986  0.65699188     0.16800
C2011       C  0.23616112  0.66443194  0.64502440     0.26200
C2012       C  0.21065539  0.66222586  0.61707347    -0.40000
C2013       C  0.19225592  0.68210902  0.60452647     0.33200
C2014       C  0.20131243  0.70398105  0.61674708     0.14900
F2015       F  0.27176304  0.68845885  0.68160358    -0.12400
F2016       F  0.15887212  0.68034104  0.75321110    -0.12900
F2017       F  0.25400890  0.64560747  0.65838072    -0.15200
F2018       F  0.18479350  0.72304998  0.60198878    -0.13800
F2019       F  0.28768142  0.71985026  0.59393919    -0.13800
F2020       F  0.22530157  0.78503323  0.69008646    -0.15200
C2021       C  0.28007925  0.95393455  0.66007377     0.14900
C2022       C  0.31233211  0.96213854  0.53551116     0.01800
C2023       C  0.33851680  0.94537771  0.53967591     0.16800
C2024       C  0.33131549  0.92184199  0.53555017     0.26200
C2025       C  0.29777837  0.91486918  0.52679312    -0.40100
C2026       C  0.27070191  0.93132806  0.52867951     0.33300
C2027       C  0.32138348  0.98675849  0.52567735     0.01900
F2028       F  0.37163917  0.95205848  0.54418161    -0.12400
F2029       F  0.24806135  0.92598498  0.62789614    -0.12900
C2030       C  0.30823530  0.00464926  0.54928280     0.16800
C2031       C  0.31150369  0.02787978  0.53544158     0.26200
C2032       C  0.32637128  0.03346204  0.49685743    -0.40000
C2033       C  0.34216943  0.01561222  0.47490629     0.33200
C2034       C  0.33971721  0.99251927  0.48920446     0.14900
F2035       F  0.29066543  0.99955034  0.58473946    -0.12400
F2036       F  0.37160188  0.02755375  0.62511208    -0.12900
F2037       F  0.29778316  0.04465371  0.55861733    -0.15200
F2038       F  0.36804481  0.98100500  0.63915792    -0.13800
F2039       F  0.25695403  0.97037029  0.64858742    -0.13800
F2040       F  0.35787034  0.90634731  0.53605194    -0.15200
C2041       C  0.15610779  0.90616278  0.57997063     0.14900
C2042       C  0.14438801  0.90567136  0.54126665     0.01800
C2043       C  0.16077597  0.89080638  0.51388189     0.16800
C2044       C  0.18823554  0.87643752  0.52550302     0.26200
C2045       C  0.19951092  0.87679700  0.56459360    -0.40100
C2046       C  0.18312342  0.89189943  0.59159982     0.33300
C2047       C  0.11394838  0.92000776  0.53114091     0.01900
F2048       F  0.14951194  0.88972038  0.47648231    -0.12400
F2049       F  0.19393287  0.89350784  0.62914090    -0.12900
C2050       C  0.11634719  0.93769513  0.50092735     0.16800
C2051       C  0.08831152  0.95282702  0.49508396     0.26200
C2052       C  0.05769122  0.95065998  0.51986870    -0.40000
C2053       C  0.05548528  0.93264966  0.54969501     0.33200
C2054       C  0.08301177  0.91737838  0.55485172     0.14900
F2055       F  0.14624970  0.94084544  0.47815877    -0.12400
F2056       F  0.02695759  0.93040595  0.57516970    -0.12900
F2057       F  0.09151823  0.96968175  0.46582687    -0.15200
F2058       F  0.07979757  0.90027343  0.58396488    -0.13800
F2059       F  0.14138255  0.92070177  0.60666957    -0.13800
F2060       F  0.20314385  0.86177548  0.49906996    -0.15200
C2061       C  0.45467993  0.82642371  0.54944693     0.14900
C2062       C  0.47533444  0.84423737  0.56259683     0.01800
C2063       C  0.45927467  0.86369380  0.57950859     0.16800
C2064       C  0.42318935  0.86480121  0.58491162     0.26200
C2065       C  0.40252288  0.84687217  0.57218341    -0.40100
C2066       C  0.41845946  0.82794005  0.55352127     0.33300
C2067       C  0.51328718  0.84130139  0.56417981     0.01900
F2068       F  0.47532853  0.89103131  0.41287483    -0.12400
F2069       F  0.39907985  0.81007184  0.54220676    -0.12900
C2070       C  0.53622398  0.85717176  0.54379324     0.16800
C2071       C  0.57142076  0.85693679  0.55165872     0.26200
C2072       C  0.58404480  0.84092806  0.58023834    -0.40000
C2073       C  0.56141865  0.82417726  0.59869781     0.33200
C2074       C  0.52637954  0.82430209  0.59057820     0.14900
F2075       F  0.52422187  0.87355863  0.51770870    -0.12400
F2076       F  0.57294654  0.80827141  0.62593171    -0.12900
F2077       F  0.59244715  0.87359308  0.53387962    -0.15200
F2078       F  0.50471724  0.80881996  0.61067568    -0.13800
F2079       F  0.46963850  0.80704169  0.53459263    -0.13800
F2080       F  0.40531375  0.89654466  0.41660988    -0.15200
O2081       O  0.25945193  0.88742818  0.73406405    -0.55600
C2082       C  0.35504594  0.85897128  0.74568668     0.77000
O2083       O  0.29896431  0.87212251  0.66463034    -0.56800
C2084       C  0.22893728  0.87936488  0.73727989     0.77000
C2085       C  0.27042426  0.80794771  0.79526585     0.79400
Cd2086     Cd  0.28436326  0.85730193  0.77984031     1.37500
O2087       O  0.33066083  0.85261864  0.72504480    -0.55600
O2088       O  0.28517830  0.81666002  0.76360451    -0.54400
C2089       C  0.29713528  0.89081757  0.64328814     0.79400
O2090       O  0.27613553  0.81525370  0.65730151    -0.56800
O2091       O  0.35405513  0.85038849  0.61828054    -0.55200
O2092       O  0.22536845  0.85979763  0.75551559    -0.55200
O2093       O  0.26098705  0.88974965  0.81752919    -0.48800
O2094       O  0.63080124  0.85356188  0.74294349    -0.55600
C2095       C  0.73343132  0.86869622  0.76033983     0.77000
O2096       O  0.66632365  0.87916329  0.68495463    -0.56800
C2097       C  0.60426651  0.84558594  0.76284297     0.77000
C2098       C  0.68139785  0.80691352  0.83025703     0.79400
Cd2099     Cd  0.66824357  0.85331431  0.79993013     1.37500
O2100       O  0.70557234  0.86888169  0.74251690    -0.55600
O2101       O  0.67704713  0.81156138  0.79368155    -0.54400
C2102       C  0.65114410  0.89441706  0.84470984     0.79400
O2103       O  0.70124341  0.82764634  0.68314822    -0.56800
O2104       O  0.73179357  0.85950796  0.79521506    -0.55200
O2105       O  0.60793892  0.84025669  0.79941912    -0.55200
O2106       O  0.63685982  0.89018281  0.81296693    -0.54400
C2107       C  0.00743567  0.96961597  0.69889222     0.04500
C2108       C  0.00627014  0.99401200  0.69161268     0.04500
C2109       C  0.97432993  0.00489203  0.68607773    -0.16000
C2110       C  0.94290229  0.99250050  0.68970633     0.04500
C2111       C  0.94380528  0.96800961  0.69730244     0.04500
C2112       C  0.97622851  0.95713785  0.70152517    -0.16000
H2113       H  0.97721083  0.93856889  0.70751875     0.06500
H2114       H  0.97376830  0.02355372  0.68088196     0.06500
O2115       O  0.33570588  0.09999872  0.71680045    -0.55600
C2116       C  0.22299570  0.08117384  0.73823914     0.77000
O2117       O  0.29387576  0.07140545  0.66514556    -0.56800
C2118       C  0.35607188  0.10854173  0.74077233     0.77000
C2119       C  0.26422833  0.14114232  0.78843471     0.79400
Cd2120     Cd  0.28719974  0.09606530  0.76856852     1.37500
O2121       O  0.24852903  0.08715348  0.71470710    -0.55600
O2122       O  0.26731376  0.13452801  0.75291889    -0.54400
C2123       C  0.31590940  0.05741670  0.65065728     0.79400
O2124       O  0.29099897  0.13124359  0.66078626    -0.56800
O2125       O  0.22713875  0.08255998  0.77523485    -0.55200
O2126       O  0.34348509  0.11208986  0.77562581    -0.55200
O2127       O  0.30981816  0.05646546  0.77181260    -0.54400
O2128       O  0.63964982  0.07239011  0.85140673    -0.55600
C2129       C  0.68736776  0.14133252  0.83834139     0.77000
O2130       O  0.71145970  0.08559787  0.91378569    -0.56800
C2131       C  0.66562875  0.05926228  0.85603264     0.77000
C2132       C  0.60697832  0.10258724  0.76284272     0.79400
Cd2133     Cd  0.67150826  0.09870276  0.80127072     1.37500
O2134       O  0.69734804  0.12187395  0.85222385    -0.55600
O2135       O  0.60998546  0.09250507  0.79669052    -0.54400
C2136       C  0.74066826  0.08884245  0.92799210     0.79400
O2137       O  0.63914066  0.11241479  0.91138153    -0.56800
O2138       O  0.66905024  0.14090655  0.80840930    -0.55200
O2139       O  0.69414525  0.06644988  0.83992177    -0.55200
O2140       O  0.72843480  0.10047549  0.76178146    -0.54400
O2141       O  0.21934598  0.56688964  0.84996634    -0.55600
C2142       C  0.12391960  0.60078109  0.84426534     0.77000
O2143       O  0.15851311  0.57023845  0.77516089    -0.56800
C2144       C  0.24701850  0.57766883  0.84000923     0.77000
C2145       C  0.20523525  0.64192179  0.76043105     0.79400
Cd2146     Cd  0.19313785  0.59696963  0.72789372     1.37500
O2147       O  0.15222957  0.60831817  0.82761148    -0.55600
O2148       O  0.18363611  0.63988055  0.89238756    -0.54400
C2149       C  0.18273207  0.55556632  0.77838165     0.79400
O2150       O  0.21630509  0.62338831  0.77701683    -0.56800
O2151       O  0.13163537  0.59324026  0.72277388    -0.55200
O2152       O  0.25320427  0.59970465  0.69625091    -0.55200
O2153       O  0.21213151  0.56194027  0.76359112    -0.54400
O2154       O  0.86191756  0.60105616  0.62067357    -0.55600
C2155       C  0.74885572  0.58691030  0.64045267     0.77000
O2156       O  0.81580251  0.57774018  0.73379380    -0.56800
C2157       C  0.88368534  0.60726317  0.64518496     0.77000
C2158       C  0.79599545  0.64979187  0.68988348     0.79400
Cd2159     Cd  0.81276574  0.60245959  0.67133103     1.37500
O2160       O  0.77500201  0.59096269  0.61644797    -0.55600
O2161       O  0.80761156  0.64420320  0.65550430    -0.54400
C2162       C  0.82761634  0.56023034  0.71590825     0.79400
O2163       O  0.79313382  0.63352142  0.71666690    -0.56800
O2164       O  0.75240784  0.59157680  0.67638207    -0.55200
O2165       O  0.87185067  0.61228095  0.67975836    -0.55200
O2166       O  0.83332875  0.56282802  0.67855892    -0.54400
C2167       C  0.46755189  0.48635411  0.77883301     0.04500
C2168       C  0.46827739  0.46177532  0.78158883     0.04500
C2169       C  0.50000047  0.45004653  0.77889377    -0.16000
C2170       C  0.53171265  0.46186851  0.77685687     0.04500
C2171       C  0.53183332  0.48673769  0.77465719     0.04500
C2172       C  0.49929448  0.49803189  0.77192887    -0.16000
H2173       H  0.49829487  0.51687779  0.76585065     0.06500
H2174       H  0.49999411  0.43120780  0.78152119     0.06500
O2175       O  0.15283593  0.35603427  0.84347924    -0.55600
C2176       C  0.25421612  0.36957267  0.86359660     0.77000
O2177       O  0.19386139  0.38011298  0.78206198    -0.56800
C2178       C  0.13356498  0.34752968  0.67673199     0.77000
C2179       C  0.20550407  0.30754620  0.76283724     0.79400
Cd2180     Cd  0.19047421  0.35258092  0.72813259     1.37500
O2181       O  0.23043337  0.36274501  0.84251162    -0.55600
O2182       O  0.22128447  0.31612912  0.73169233    -0.54400
C2183       C  0.16522782  0.39014364  0.77704040     0.79400
O2184       O  0.18159350  0.31985585  0.77872348    -0.56800
O2185       O  0.24989979  0.36793372  0.73033460    -0.55200
O2186       O  0.14637229  0.33001056  0.69469025    -0.55200
O2187       O  0.14654927  0.38121942  0.75223149    -0.54400
O2188       O  0.87022650  0.34548567  0.68570107    -0.55600
C2189       C  0.74693778  0.37330583  0.64690791     0.77000
O2190       O  0.81153990  0.38662284  0.83673146    -0.56800
C2191       C  0.88225912  0.34711819  0.64976706     0.77000
C2192       C  0.78840435  0.30706765  0.68672646     0.79400
Cd2193     Cd  0.81045335  0.35444460  0.67448739     1.37500
O2194       O  0.74774478  0.36008768  0.67800771    -0.55600
O2195       O  0.79057412  0.31988478  0.71647335    -0.54400
C2196       C  0.81595804  0.39567606  0.71753415     0.79400
O2197       O  0.79395430  0.30565656  0.82523920    -0.56800
O2198       O  0.77513549  0.37585876  0.62581313    -0.55200
O2199       O  0.86073027  0.35251265  0.62356601    -0.55200
O2200       O  0.81661904  0.37610261  0.73656549    -0.54400
C2201       C  0.05240481  0.32351120  0.63540837     0.14900
C2202       C  0.03131711  0.34343645  0.63352236     0.01800
C2203       C  0.04598938  0.36510925  0.63993118     0.16800
C2204       C  0.08020493  0.36661764  0.65117436     0.26200
C2205       C  0.10051945  0.34641916  0.65628916    -0.40100
C2206       C  0.08662978  0.32496573  0.64676121     0.33300
C2207       C  0.99305508  0.34129526  0.63226807     0.01900
F2208       F  0.02620335  0.38463082  0.63902425    -0.12400
F2209       F  0.10548886  0.30517170  0.65041785    -0.12900
C2210       C  0.97475974  0.32830613  0.66293231     0.16800
C2211       C  0.93864994  0.32911951  0.66671440     0.26200
C2212       C  0.91979685  0.34317189  0.64023341    -0.40000
C2213       C  0.93785348  0.35484489  0.60766082     0.33200
C2214       C  0.97428605  0.35402805  0.60388520     0.14900
F2215       F  0.99196100  0.31598043  0.69103736    -0.12400
F2216       F  0.92052830  0.36811518  0.58092778    -0.12900
F2217       F  0.92212227  0.31658981  0.69725303    -0.15200
F2218       F  0.99015495  0.35292245  0.74950122    -0.13800
F2219       F  0.03913843  0.30239475  0.62856592    -0.13800
F2220       F  0.09217454  0.38765098  0.66067669    -0.15200
C2221       C  0.31599931  0.40906635  0.80099131     0.14900
C2222       C  0.34660462  0.40597643  0.82129365     0.01800
C2223       C  0.34745053  0.38912950  0.85277076     0.16800
C2224       C  0.31767209  0.37661376  0.86543209     0.26200
C2225       C  0.28659385  0.38038115  0.84631450    -0.40100
C2226       C  0.28624667  0.39631228  0.81331259     0.33300
C2227       C  0.37743736  0.42064067  0.81058453     0.01900
F2228       F  0.37727387  0.38474219  0.87115143    -0.12400
F2229       F  0.25663438  0.40070947  0.79456663    -0.12900
C2230       C  0.37948136  0.44403927  0.65868710     0.16800
C2231       C  0.40713138  0.45920239  0.64869052     0.26200
C2232       C  0.43699707  0.44761669  0.79123381    -0.40000
C2233       C  0.42330867  0.43392174  0.76240935     0.33200
C2234       C  0.39336253  0.42084932  0.77189065     0.14900
F2235       F  0.35334484  0.45086158  0.68440580    -0.12400
F2236       F  0.43865182  0.43359959  0.72500669    -0.12900
F2237       F  0.40691782  0.47995002  0.66570084    -0.15200
F2238       F  0.38001789  0.40823312  0.74347868    -0.13800
F2239       F  0.31445342  0.42519476  0.77041252    -0.13800
F2240       F  0.31918003  0.36079833  0.89649968    -0.15200
C2241       C  0.61507286  0.44642191  0.65360208     0.14900
C2242       C  0.62187590  0.42724224  0.62971638     0.01800
C2243       C  0.60107770  0.41688306  0.75316029     0.16800
C2244       C  0.57226487  0.43150494  0.74974675     0.26200
C2245       C  0.56182098  0.45455287  0.62012928    -0.40100
C2246       C  0.58493683  0.45977213  0.64916636     0.33300
C2247       C  0.65402852  0.41323177  0.63308315     0.01900
F2248       F  0.60962795  0.40220808  0.72362883    -0.12400
F2249       F  0.57831367  0.47802118  0.67255287    -0.12900
C2250       C  0.65217855  0.38916737  0.64193044     0.16800
C2251       C  0.68246248  0.37591139  0.64469632     0.26200
C2252       C  0.71513808  0.38636713  0.63791358    -0.40000
C2253       C  0.71701125  0.41027876  0.62778373     0.33200
C2254       C  0.68672830  0.42363793  0.62577984     0.14900
F2255       F  0.62098203  0.37857539  0.64880441    -0.12400
F2256       F  0.74821058  0.42094929  0.62183383    -0.12900
F2257       F  0.67989549  0.35281457  0.65402859    -0.15200
F2258       F  0.68129129  0.41977339  0.73522926    -0.13800
F2259       F  0.63732656  0.45194850  0.68152039    -0.13800
F2260       F  0.55327497  0.43054352  0.71708469    -0.15200
C2261       C  0.84677046  0.44749153  0.76992749     0.14900
C2262       C  0.82308478  0.46454277  0.75724794     0.01800
C2263       C  0.79453454  0.45784540  0.73644548     0.16800
C2264       C  0.79117287  0.43492648  0.72579085     0.26200
C2265       C  0.81559097  0.41806096  0.73694323    -0.40100
C2266       C  0.84250184  0.42423011  0.76068358     0.33300
C2267       C  0.83094008  0.48960746  0.75775516     0.01900
F2268       F  0.77189166  0.47399892  0.72269560    -0.12400
F2269       F  0.86656820  0.40825981  0.77136027    -0.12900
C2270       C  0.85766896  0.49865692  0.73159745     0.16800
C2271       C  0.85840978  0.52229804  0.72062007     0.26200
C2272       C  0.83278554  0.53734093  0.73618322    -0.40000
C2273       C  0.80849937  0.52872763  0.76591542     0.33200
C2274       C  0.80724534  0.50495344  0.77613976     0.14900
F2275       F  0.88066053  0.48422065  0.71306827    -0.12400
F2276       F  0.80470242  0.54554707  0.61244345    -0.12900
F2277       F  0.88267989  0.53019520  0.69246489    -0.15200
F2278       F  0.78091272  0.49667598  0.80109217    -0.13800
F2279       F  0.87548817  0.45357845  0.78827186    -0.13800
F2280       F  0.76520157  0.42951684  0.70228389    -0.15200
C2281       C  0.62592080  0.51381508  0.59422096     0.14900
C2282       C  0.62334407  0.53666677  0.60741061     0.01800
C2283       C  0.58711461  0.53926492  0.79571506     0.16800
C2284       C  0.55994570  0.52338925  0.79666149     0.26200
C2285       C  0.56359235  0.50190875  0.77778645    -0.40100
C2286       C  0.59629651  0.50085433  0.58807736     0.33300
C2287       C  0.65527737  0.55081676  0.61387564     0.01900
F2288       F  0.57979042  0.56107718  0.80737745    -0.12400
F2289       F  0.60135819  0.48061695  0.56998400    -0.12900
C2290       C  0.68577048  0.54955662  0.58841949     0.16800
C2291       C  0.71580718  0.56179521  0.59613513     0.26200
C2292       C  0.71613762  0.57627308  0.62867930    -0.40000
C2293       C  0.68558256  0.57832733  0.65317143     0.33200
C2294       C  0.65606157  0.56536597  0.64665749     0.14900
F2295       F  0.67746845  0.53992350  0.72257816    -0.12400
F2296       F  0.68446965  0.59245303  0.68456174    -0.12900
F2297       F  0.73539597  0.56306632  0.73680898    -0.15200
F2298       F  0.62914341  0.56605047  0.67440377    -0.13800
F2299       F  0.65710458  0.50316449  0.58886399    -0.13800
F2300       F  0.53009211  0.52929172  0.81702191    -0.15200
C2301       C  0.17411242  0.44357619  0.83635725     0.14900
C2302       C  0.15295632  0.45919986  0.81558748     0.01800
C2303       C  0.12959133  0.45054479  0.78935181     0.16800
C2304       C  0.13082782  0.42712353  0.77990025     0.26200
C2305       C  0.15566796  0.41211860  0.79644947    -0.40100
C2306       C  0.17539472  0.42020633  0.82698031     0.33300
C2307       C  0.16170500  0.48420554  0.81303619     0.01900
F2308       F  0.11546285  0.46964915  0.92611314    -0.12400
F2309       F  0.19786057  0.40598497  0.84576341    -0.12900
C2310       C  0.19381618  0.49087338  0.79453855     0.16800
C2311       C  0.20134121  0.51418449  0.78579038     0.26200
C2312       C  0.17683856  0.53156734  0.79523731    -0.40000
C2313       C  0.14523056  0.52497534  0.81569423     0.33200
C2314       C  0.13770268  0.50140700  0.82443680     0.14900
F2315       F  0.21713760  0.47458967  0.78226767    -0.12400
F2316       F  0.12115334  0.54119987  0.82593556    -0.12900
F2317       F  0.23187053  0.51946755  0.76547885    -0.15200
F2318       F  0.10670721  0.49533599  0.84293060    -0.13800
F2319       F  0.19604510  0.45144597  0.86289699    -0.13800
F2320       F  0.11019841  0.41983524  0.75153243    -0.15200
C2321       C  0.33837265  0.56541749  0.79557161     0.14900
C2322       C  0.34068967  0.54116493  0.80199844     0.01800
C2323       C  0.31110137  0.52901736  0.81733754     0.16800
C2324       C  0.28054670  0.54085192  0.82828752     0.26200
C2325       C  0.27837881  0.56525882  0.82343255    -0.40100
C2326       C  0.30743358  0.57733675  0.80588044     0.33300
C2327       C  0.37389038  0.52829896  0.79416419     0.01900
F2328       F  0.31226640  0.50560295  0.82355360    -0.12400
F2329       F  0.30602486  0.60067800  0.79894378    -0.12900
C2330       C  0.40366792  0.53796849  0.63935653     0.16800
C2331       C  0.43368923  0.52483302  0.63266086     0.26200
C2332       C  0.43481504  0.50049657  0.78464029    -0.40000
C2333       C  0.40539165  0.49636669  0.76322799     0.33200
C2334       C  0.37551563  0.51010911  0.76762202     0.14900
F2335       F  0.40298790  0.55415635  0.66759944    -0.12400
F2336       F  0.40533615  0.47891963  0.73791521    -0.12900
F2337       F  0.46107136  0.52863730  0.65508387    -0.15200
F2338       F  0.34799369  0.50560941  0.74580854    -0.13800
F2339       F  0.36606199  0.57755039  0.77922013    -0.13800
F2340       F  0.25361905  0.52832556  0.84556157    -0.15200
C2341       C  0.05122225  0.62326281  0.78052089     0.14900
C2342       C  0.03103550  0.59967074  0.63723103     0.01800
C2343       C  0.03948356  0.58233698  0.66563004     0.16800
C2344       C  0.07239851  0.58156185  0.68045492     0.26200
C2345       C  0.09012736  0.60274859  0.82511523    -0.40100
C2346       C  0.08431401  0.62013948  0.79533625     0.33300
C2347       C  0.99413642  0.60426749  0.63106319     0.01900
F2348       F  0.01510278  0.56703854  0.68085468    -0.12400
F2349       F  0.11007662  0.63497317  0.78222754    -0.12900
C2350       C  0.96767316  0.59805513  0.76558646     0.16800
C2351       C  0.93141889  0.59974980  0.76665305     0.26200
C2352       C  0.92137919  0.60791540  0.63549421    -0.40000
C2353       C  0.94164085  0.62411759  0.65379927     0.33200
C2354       C  0.97766976  0.62233676  0.65150649     0.14900
F2355       F  0.98340573  0.57961606  0.74851484    -0.12400
F2356       F  0.92643855  0.64106603  0.67563583    -0.12900
F2357       F  0.91303760  0.58314435  0.74975170    -0.15200
F2358       F  0.99641247  0.63716101  0.67202134    -0.13800
F2359       F  0.04584649  0.64081113  0.75325881    -0.13800
F2360       F  0.07904250  0.56547937  0.70986166    -0.15200
C2361       C  0.74214679  0.18634781  0.88347531     0.14900
C2362       C  0.72471770  0.20689636  0.87259438     0.01800
C2363       C  0.69257186  0.20551801  0.85537380     0.16800
C2364       C  0.67929902  0.18399311  0.84635956     0.26200
C2365       C  0.69792042  0.16346353  0.85461726    -0.40100
C2366       C  0.72877646  0.16476251  0.87478650     0.33300
C2367       C  0.74204630  0.22964556  0.87382934     0.01900
F2368       F  0.67521943  0.22513631  0.84464430    -0.12400
F2369       F  0.74739062  0.14533187  0.88341406    -0.12900
C2370       C  0.77200910  0.23416731  0.84907550     0.16800
C2371       C  0.78643471  0.25637589  0.84599298     0.26200
C2372       C  0.77546913  0.28276916  0.69072453    -0.40000
C2373       C  0.75391959  0.27495442  0.72394827     0.33200
C2374       C  0.73856305  0.25286715  0.72484985     0.14900
F2375       F  0.78621671  0.21733255  0.82618258    -0.12400
F2376       F  0.74646493  0.28902362  0.75469776    -0.12900
F2377       F  0.81498209  0.26028500  0.82113214    -0.15200
F2378       F  0.71671009  0.24608608  0.75627125    -0.13800
F2379       F  0.77303185  0.18728303  0.90066929    -0.13800
F2380       F  0.64888615  0.18333824  0.82809204    -0.15200
C2381       C  0.19757125  0.24665993  0.80926340     0.14900
C2382       C  0.23056660  0.23762583  0.79917351     0.01800
C2383       C  0.25627274  0.25233644  0.78117692     0.16800
C2384       C  0.24838243  0.27538910  0.77079773     0.26200
C2385       C  0.21471884  0.28418601  0.77877201    -0.40100
C2386       C  0.18969009  0.26982460  0.79927575     0.33300
C2387       C  0.23644074  0.21232816  0.80102712     0.01900
F2388       F  0.28843257  0.24399629  0.77143183    -0.12400
F2389       F  0.15696112  0.27766501  0.80709947    -0.12900
C2390       C  0.21925608  0.19861489  0.77490380     0.16800
C2391       C  0.22724101  0.17513574  0.77237931     0.26200
C2392       C  0.25250964  0.16491610  0.79605761    -0.40000
C2393       C  0.26871128  0.17835548  0.82353418     0.33200
C2394       C  0.26089529  0.20204739  0.82577314     0.14900
F2395       F  0.19590434  0.20827552  0.75034600    -0.12400
F2396       F  0.30921545  0.17388889  0.69153853    -0.12900
F2397       F  0.21070728  0.16243555  0.74615031    -0.15200
F2398       F  0.29192599  0.21969526  0.69785700    -0.13800
F2399       F  0.17254654  0.23266638  0.82706985    -0.13800
F2400       F  0.27347233  0.28892883  0.75191491    -0.15200
C2401       C  0.51435921  0.08913310  0.74327050     0.14900
C2402       C  0.50373824  0.10983558  0.72409056     0.01800
C2403       C  0.52827417  0.12723146  0.71338203     0.16800
C2404       C  0.56767500  0.12331130  0.88532767     0.26200
C2405       C  0.57282760  0.10421472  0.74528991    -0.40100
C2406       C  0.54848228  0.08641219  0.75410410     0.33300
C2407       C  0.46625684  0.11413242  0.72130810     0.01900
F2408       F  0.52418768  0.14318936  0.84915350    -0.12400
F2409       F  0.55746334  0.06660301  0.77441305    -0.12900
C2410       C  0.44871277  0.12686701  0.75087913     0.16800
C2411       C  0.41259383  0.12638149  0.75534943     0.26200
C2412       C  0.39328270  0.11303368  0.73027936    -0.40000
C2413       C  0.41087288  0.10164632  0.69875915     0.33200
C2414       C  0.44715903  0.10214951  0.69444615     0.14900
F2415       F  0.46673208  0.13825887  0.77755125    -0.12400
F2416       F  0.39329588  0.08846351  0.67420970    -0.12900
F2417       F  0.39672623  0.13796326  0.78574339    -0.15200
F2418       F  0.46378365  0.08973322  0.66568913    -0.13800
F2419       F  0.49100328  0.07213481  0.75389855    -0.13800
F2420       F  0.59132768  0.13924973  0.87056372    -0.15200
C2421       C  0.08518463  0.02054094  0.73303268     0.14900
C2422       C  0.09798517  0.03513891  0.70093720     0.01800
C2423       C  0.08005539  0.03660416  0.66565781     0.16800
C2424       C  0.05297564  0.02587380  0.84199780     0.26200
C2425       C  0.03730421  0.00884759  0.69460329    -0.40100
C2426       C  0.05462711  0.00805503  0.73018800     0.33300
C2427       C  0.12902480  0.04956345  0.70567400     0.01900
F2428       F  0.08167286  0.06219358  0.83079956    -0.12400
F2429       F  0.04119037  0.99549758  0.76243397    -0.12900
C2430       C  0.15983713  0.04652984  0.68211890     0.16800
C2431       C  0.19013812  0.05815061  0.69078992     0.26200
C2432       C  0.19021949  0.07233864  0.72395947    -0.40000
C2433       C  0.15878002  0.07647557  0.74569242     0.33200
C2434       C  0.12840712  0.06553806  0.73604152     0.14900
F2435       F  0.16101796  0.03148160  0.65207020    -0.12400
F2436       F  0.15748188  0.09106233  0.77644278    -0.12900
F2437       F  0.21971467  0.05436433  0.66825936    -0.15200
F2438       F  0.09816446  0.07040185  0.75644713    -0.13800
F2439       F  0.10254139  0.01827535  0.76703172    -0.13800
F2440       F  0.02827586  0.03369031  0.81747574    -0.15200
C2441       C  0.78817646  0.03202557  0.72428693     0.14900
C2442       C  0.81433302  0.04380438  0.70109858     0.01800
C2443       C  0.83460680  0.07314342  0.90125213     0.16800
C2444       C  0.80485376  0.08648693  0.91028587     0.26200
C2445       C  0.77200612  0.07601964  0.91404225    -0.40100
C2446       C  0.76954021  0.05198356  0.90962718     0.33300
C2447       C  0.84801243  0.03217742  0.69406523     0.01900
F2448       F  0.86597414  0.08373207  0.89734978    -0.12400
F2449       F  0.73498754  0.03221078  0.76280897    -0.12900
C2450       C  0.86586883  0.02061140  0.85451022     0.16800
C2451       C  0.89467495  0.00613343  0.84767885     0.26200
C2452       C  0.91023797  0.00638808  0.68953162    -0.40000
C2453       C  0.90582765  0.02462268  0.71602152     0.33200
C2454       C  0.87515037  0.03742356  0.71804236     0.14900
F2455       F  0.84081534  0.02158457  0.82770402    -0.12400
F2456       F  0.93047003  0.02912504  0.74187832    -0.12900
F2457       F  0.89691002  0.99380779  0.81434132    -0.15200
F2458       F  0.87102238  0.05406001  0.74534595    -0.13800
F2459       F  0.79220045  0.00928482  0.73543832    -0.13800
F2460       F  0.80812597  0.10955555  0.91559430    -0.15200
C2461       C  0.68907609  0.74153115  0.83761346     0.14900
C2462       C  0.73969443  0.74224767  0.69640911     0.01800
C2463       C  0.75392872  0.76210120  0.71194975     0.16800
C2464       C  0.74033368  0.78419000  0.70281360     0.26200
C2465       C  0.71307677  0.78675120  0.67689798    -0.40100
C2466       C  0.67554824  0.76373865  0.82969641     0.33300
C2467       C  0.75686747  0.71927379  0.70054879     0.01900
F2468       F  0.78169822  0.76014952  0.73484644    -0.12400
F2469       F  0.64780894  0.76617809  0.80676982    -0.12900
C2470       C  0.78835949  0.71527313  0.67887105     0.16800
C2471       C  0.80215636  0.69280844  0.67711114     0.26200
C2472       C  0.78480193  0.67393938  0.69728606    -0.40000
C2473       C  0.75428744  0.67819103  0.72083187     0.33200
C2474       C  0.74021690  0.70064261  0.72205130     0.14900
F2475       F  0.77404999  0.73073602  0.80423423    -0.12400
F2476       F  0.73667704  0.66034492  0.74020857    -0.12900
F2477       F  0.80800932  0.68948381  0.80059622    -0.15200
F2478       F  0.70953344  0.70403903  0.74276270    -0.13800
F2479       F  0.67451516  0.72289306  0.82181284    -0.13800
F2480       F  0.75534102  0.80314089  0.71705079    -0.15200
C2481       C  0.61929779  0.95513133  0.86504235     0.14900
C2482       C  0.64423446  0.96262498  0.89048313     0.01800
C2483       C  0.66722993  0.94629542  0.90662753     0.16800
C2484       C  0.66818229  0.92357097  0.89368610     0.26200
C2485       C  0.64550449  0.91661453  0.86499450    -0.40100
C2486       C  0.61984726  0.93231773  0.85250802     0.33300
C2487       C  0.65171577  0.98774893  0.89171795     0.01900
F2488       F  0.69091384  0.95297899  0.93219777    -0.12400
F2489       F  0.59671868  0.92614349  0.82594195    -0.12900
C2490       C  0.62597387  0.00391978  0.90293903     0.16800
C2491       C  0.63148092  0.02775863  0.89490442     0.26200
C2492       C  0.66263730  0.03562752  0.87502600    -0.40000
C2493       C  0.68918732  0.01940741  0.86674759     0.33200
C2494       C  0.68380234  0.99584700  0.87508174     0.14900
F2495       F  0.59488699  0.99654350  0.91954661    -0.12400
F2496       F  0.71946818  0.02593359  0.84699175    -0.12900
F2497       F  0.60560787  0.04291435  0.90430949    -0.15200
F2498       F  0.70892113  0.98074108  0.86288542    -0.13800
F2499       F  0.59659030  0.97046148  0.84906858    -0.13800
F2500       F  0.67077303  0.90962738  0.74251348    -0.15200
C2501       C  0.88423610  0.91619159  0.68961282     0.14900
C2502       C  0.85510830  0.92228388  0.71363108     0.01800
C2503       C  0.85486174  0.94349980  0.73252065     0.16800
C2504       C  0.88349446  0.95827302  0.72773843     0.26200
C2505       C  0.91221569  0.95289920  0.70189591    -0.40100
C2506       C  0.91188245  0.93166492  0.68248853     0.33300
C2507       C  0.82522105  0.90637668  0.72018300     0.01900
F2508       F  0.82747095  0.94942410  0.75719821    -0.12400
F2509       F  0.93079947  0.93897673  0.79431087    -0.12900
C2510       C  0.82775526  0.88597513  0.74425528     0.16800
C2511       C  0.79802845  0.87321273  0.75640325     0.26200
C2512       C  0.76554403  0.87988906  0.74274058    -0.40000
C2513       C  0.76377174  0.89904070  0.71530329     0.33200
C2514       C  0.79327676  0.91239591  0.70470878     0.14900
F2515       F  0.85885065  0.87875895  0.75700419    -0.12400
F2516       F  0.73318733  0.90576619  0.70055776    -0.12900
F2517       F  0.80094978  0.85458208  0.78216950    -0.15200
F2518       F  0.79056446  0.93153384  0.68000026    -0.13800
F2519       F  0.87550547  0.90977135  0.80464985    -0.13800
F2520       F  0.88334047  0.97737262  0.74958641    -0.15200
C2521       C  0.27146560  0.74412027  0.77210253     0.14900
C2522       C  0.24335568  0.73530390  0.79639299     0.01800
C2523       C  0.22580988  0.75007736  0.82313410     0.16800
C2524       C  0.23564533  0.77347621  0.82470365     0.26200
C2525       C  0.26285712  0.78257741  0.79896402    -0.40100
C2526       C  0.28117891  0.76738356  0.77343918     0.33300
C2527       C  0.23178848  0.71099198  0.79211282     0.01900
F2528       F  0.19881926  0.74189277  0.84728780    -0.12400
F2529       F  0.30840331  0.77510390  0.74913893    -0.12900
C2530       C  0.25437007  0.69226036  0.79936254     0.16800
C2531       C  0.24515236  0.66961454  0.79068073     0.26200
C2532       C  0.21324345  0.66529352  0.77424305    -0.40000
C2533       C  0.19017805  0.68394391  0.76825183     0.33200
C2534       C  0.19926903  0.70653009  0.77736719     0.14900
F2535       F  0.28573520  0.69601193  0.81411873    -0.12400
F2536       F  0.16100652  0.68235136  0.90275334    -0.12900
F2537       F  0.26828904  0.65213920  0.79624146    -0.15200
F2538       F  0.17683166  0.72421204  0.77023656    -0.13800
F2539       F  0.28871605  0.73038375  0.74570452    -0.13800
F2540       F  0.21761336  0.78737364  0.85014476    -0.15200
C2541       C  0.27121733  0.95299300  0.86836329     0.14900
C2542       C  0.30939665  0.96005719  0.68016364     0.01800
C2543       C  0.33274215  0.94265738  0.69201038     0.16800
C2544       C  0.32761933  0.91960650  0.68216305     0.26200
C2545       C  0.29951951  0.91388196  0.65977299    -0.40100
C2546       C  0.27549503  0.93111930  0.64940071     0.33300
C2547       C  0.31740166  0.98494176  0.68302595     0.01900
F2548       F  0.36108779  0.94815366  0.71169327    -0.12400
F2549       F  0.23070018  0.92362924  0.85716240    -0.12900
C2550       C  0.29381003  0.99954818  0.70311173     0.16800
C2551       C  0.29514961  0.02357607  0.69548670     0.26200
C2552       C  0.32018037  0.03337184  0.66749192    -0.40000
C2553       C  0.34618693  0.01881491  0.65103379     0.33200
C2554       C  0.34473753  0.99479559  0.65870538     0.14900
F2555       F  0.26784538  0.99034866  0.72777008    -0.12400
F2556       F  0.34570699  0.01769294  0.77053380    -0.12900
F2557       F  0.27021710  0.03688706  0.71317289    -0.15200
F2558       F  0.34516065  0.97338186  0.80068237    -0.13800
F2559       F  0.24545693  0.96894844  0.86495285    -0.13800
F2560       F  0.35150332  0.90327510  0.69167875    -0.15200
C2561       C  0.16745046  0.92968799  0.71879057     0.14900
C2562       C  0.13665414  0.91811529  0.71161944     0.01800
C2563       C  0.13732275  0.89383529  0.70908374     0.16800
C2564       C  0.16780110  0.88126092  0.71553161     0.26200
C2565       C  0.19846232  0.89275674  0.72382983    -0.40100
C2566       C  0.19808806  0.91717866  0.72465605     0.33300
C2567       C  0.10361635  0.93127389  0.70844499     0.01900
F2568       F  0.10827952  0.88225567  0.70079927    -0.12400
F2569       F  0.22668121  0.92888472  0.73406247    -0.12900
C2570       C  0.10022493  0.94872836  0.67837713     0.16800
C2571       C  0.06879686  0.96052193  0.67474149     0.26200
C2572       C  0.04080793  0.95657357  0.70282569    -0.40000
C2573       C  0.04466157  0.93966253  0.73392086     0.33200
C2574       C  0.07540932  0.92674591  0.73605115     0.14900
F2575       F  0.12727078  0.95434674  0.65226405    -0.12400
F2576       F  0.01892943  0.93591518  0.76272556    -0.12900
F2577       F  0.06548867  0.97560966  0.64322180    -0.15200
F2578       F  0.07799269  0.91022305  0.76581820    -0.13800
F2579       F  0.16737001  0.95305189  0.72234226    -0.13800
F2580       F  0.16719581  0.85777199  0.71420826    -0.15200
C2581       C  0.44115581  0.83791142  0.70050093     0.14900
C2582       C  0.46417111  0.85198474  0.71949969     0.01800
C2583       C  0.45102446  0.87037365  0.74187902     0.16800
C2584       C  0.41535754  0.87373642  0.74759694     0.26200
C2585       C  0.39203239  0.85857434  0.73141281    -0.40100
C2586       C  0.40519328  0.84126477  0.70622935     0.33300
C2587       C  0.50131365  0.84607692  0.72156727     0.01900
F2588       F  0.47865298  0.88088915  0.59326182    -0.12400
F2589       F  0.38340690  0.82643949  0.68989090    -0.12900
C2590       C  0.52669469  0.86080524  0.70284891     0.16800
C2591       C  0.56099307  0.85946748  0.71416759     0.26200
C2592       C  0.57020386  0.84370768  0.74510228    -0.40000
C2593       C  0.54516915  0.82791068  0.76182813     0.33200
C2594       C  0.51112801  0.82889825  0.74970141     0.14900
F2595       F  0.51767038  0.87762887  0.67579060    -0.12400
F2596       F  0.55319384  0.81222521  0.79127307    -0.12900
F2597       F  0.58430634  0.87507018  0.69750119    -0.15200
F2598       F  0.48700347  0.81434517  0.76787907    -0.13800
F2599       F  0.45344198  0.82025298  0.67822341    -0.13800
F2600       F  0.40840920  0.88308969  0.60366244    -0.15200
O2601       O  0.24659982  0.85716381  0.88764184    -0.55600
C2602       C  0.35534244  0.84574851  0.92470680     0.77000
O2603       O  0.30803392  0.87528881  0.83887670    -0.56800
C2604       C  0.22116350  0.86324794  0.91066778     0.77000
C2605       C  0.26653219  0.80031517  0.97079995     0.79400
Cd2606     Cd  0.28296810  0.84707249  0.94534364     1.37500
O2607       O  0.33416666  0.84438897  0.89719998    -0.55600
O2608       O  0.28081835  0.80577253  0.93680543    -0.54400
C2609       C  0.28599228  0.89162766  0.83976303     0.79400
O2610       O  0.26209905  0.82216713  0.82210600    -0.56800
O2611       O  0.34633511  0.86510266  0.78051556    -0.55200
O2612       O  0.22360129  0.85876594  0.94766466    -0.55200
O2613       O  0.28710360  0.88863245  0.94390500    -0.48800
O2614       O  0.63516366  0.85089135  0.90938966    -0.55600
C2615       C  0.74285918  0.86726953  0.92070777     0.77000
O2616       O  0.67173403  0.87901618  0.85686241    -0.56800
C2617       C  0.61147136  0.84169812  0.93250336     0.77000
C2618       C  0.69402934  0.80653023  0.99420648     0.79400
Cd2619     Cd  0.67776847  0.85174110  0.96156504     1.37500
O2620       O  0.71801463  0.86082328  0.90090666    -0.55600
O2621       O  0.68825863  0.81031965  0.95774519    -0.54400
C2622       C  0.65510248  0.89255736  0.00360566     0.79400
O2623       O  0.67856378  0.82365075  0.85351612    -0.56800
O2624       O  0.73806652  0.86527321  0.95822296    -0.55200
O2625       O  0.61951473  0.83613580  0.96769655    -0.55200
O2626       O  0.64805674  0.88944742  0.96794182    -0.54400
C2627       C  0.01654749  0.96551782  0.85298582     0.04500
C2628       C  0.01758870  0.98978732  0.85959643     0.04500
C2629       C  0.98585056  0.00172032  0.86566839    -0.16000
C2630       C  0.95347886  0.99071213  0.86547765     0.04500
C2631       C  0.95262247  0.96683144  0.85689068     0.04500
C2632       C  0.98404865  0.95495576  0.84989897    -0.16000
H2633       H  0.98319260  0.93650560  0.84485008     0.06500
H2634       H  0.98627928  0.01998153  0.87190469     0.06500
O2635       O  0.33843127  0.10243772  0.88600372    -0.55600
C2636       C  0.23020824  0.08212305  0.90741178     0.77000
O2637       O  0.29578512  0.07090541  0.82854786    -0.56800
C2638       C  0.36000529  0.11210176  0.90717856     0.77000
C2639       C  0.26632939  0.14411568  0.96531022     0.79400
Cd2640     Cd  0.29197493  0.09975450  0.94037624     1.37500
O2641       O  0.25550863  0.08944330  0.88461592    -0.55600
O2642       O  0.26767276  0.13800741  0.92946457    -0.54400
C2643       C  0.30706470  0.05364272  0.80948794     0.79400
O2644       O  0.27194470  0.12659177  0.81615738    -0.56800
O2645       O  0.23343795  0.08338063  0.94453709    -0.55200
O2646       O  0.34884452  0.11766007  0.94173819    -0.55200
O2647       O  0.32460761  0.06334110  0.94514832    -0.54400
O2648       O  0.64806206  0.07526719  0.02074176    -0.55600
C2649       C  0.69026740  0.14762547  0.00233489     0.77000
O2650       O  0.69950359  0.07910200  0.08049000    -0.56800
C2651       C  0.66777127  0.05844758  0.01141257     0.77000
C2652       C  0.61158610  0.10540469  0.93057055     0.79400
Cd2653     Cd  0.67692847  0.10302355  0.96878020     1.37500
O2654       O  0.69418922  0.12877529  0.02254253    -0.55600
O2655       O  0.61484060  0.09792999  0.96613420    -0.54400
C2656       C  0.72978656  0.08722611  0.08026533     0.79400
O2657       O  0.63475009  0.11308461  0.07695222    -0.56800
O2658       O  0.67848534  0.14581202  0.96821776    -0.55200
O2659       O  0.69233531  0.06325119  0.98615633    -0.55200
O2660       O  0.74088992  0.10163602  0.95763886    -0.54400
O2661       O  0.21548870  0.56900098  0.02027766    -0.55600
C2662       C  0.12231627  0.60038384  0.00802482     0.77000
O2663       O  0.15268242  0.56998059  0.92950509    -0.56800
C2664       C  0.24201794  0.58060002  0.00880727     0.77000
C2665       C  0.19718300  0.64084256  0.92562558     0.79400
Cd2666     Cd  0.18800060  0.59739254  0.88596595     1.37500
O2667       O  0.15105899  0.60759113  0.99222404    -0.55600
O2668       O  0.17836370  0.64253268  0.05756099    -0.54400
C2669       C  0.17840786  0.55839604  0.94112048     0.79400
O2670       O  0.20715820  0.62164370  0.94066765    -0.56800
O2671       O  0.12582918  0.59154325  0.87891520    -0.55200
O2672       O  0.24661319  0.59906389  0.84721602    -0.55200
O2673       O  0.20798014  0.56687577  0.93160228    -0.54400
O2674       O  0.85464231  0.60748784  0.77874359    -0.55600
C2675       C  0.74243627  0.58829340  0.80780042     0.77000
O2676       O  0.81389128  0.57556260  0.89133360    -0.56800
C2677       C  0.87728206  0.61400022  0.80195128     0.77000
C2678       C  0.78731486  0.65010021  0.85053675     0.79400
Cd2679     Cd  0.80820822  0.60386617  0.83288874     1.37500
O2680       O  0.76728154  0.59255510  0.78216315    -0.55600
O2681       O  0.79559767  0.64392815  0.81546336    -0.54400
C2682       C  0.82503214  0.55921646  0.86983386     0.79400
O2683       O  0.79025259  0.63487338  0.87884942    -0.56800
O2684       O  0.74767828  0.59305151  0.84336829    -0.55200
O2685       O  0.86726512  0.61667449  0.83815634    -0.55200
O2686       O  0.82989513  0.56429092  0.83287744    -0.54400
C2687       C  0.46022474  0.49494325  0.93853562     0.04500
C2688       C  0.45932573  0.47110627  0.95189186     0.04500
C2689       C  0.49109016  0.46016194  0.95999736    -0.16000
C2690       C  0.52337763  0.47118897  0.95295362     0.04500
C2691       C  0.52453547  0.49483113  0.93887390     0.04500
C2692       C  0.49275376  0.50590651  0.93072218    -0.16000
H2693       H  0.49303662  0.52331040  0.91950010     0.06500
H2694       H  0.49089205  0.44269177  0.97195296     0.06500
O2695       O  0.14960925  0.35903334  0.01351332    -0.55600
C2696       C  0.25289866  0.36960962  0.02593023     0.77000
O2697       O  0.18897666  0.38004981  0.95407189    -0.56800
C2698       C  0.12986114  0.34189757  0.85750016     0.77000
C2699       C  0.20759161  0.30873910  0.94016158     0.79400
Cd2700     Cd  0.18953067  0.35220327  0.90088161     1.37500
O2701       O  0.22897928  0.36138137  0.00655548    -0.55600
O2702       O  0.21564153  0.31369559  0.90367623    -0.54400
C2703       C  0.16485618  0.39275107  0.94176148     0.79400
O2704       O  0.19019665  0.32386091  0.95907368    -0.56800
O2705       O  0.24848387  0.36735911  0.90097025    -0.55200
O2706       O  0.13573621  0.33121536  0.89021913    -0.55200
O2707       O  0.15040724  0.38580212  0.91174820    -0.54400
O2708       O  0.86425653  0.33564752  0.85764192    -0.55600
C2709       C  0.74134896  0.36067892  0.81379870     0.77000
O2710       O  0.80601612  0.39666911  0.02235110    -0.56800
C2711       C  0.87839343  0.33703785  0.82257314     0.77000
C2712       C  0.78398394  0.29848770  0.86030433     0.79400
Cd2713     Cd  0.80605472  0.34509697  0.84164637     1.37500
O2714       O  0.74559381  0.35474305  0.85003590    -0.55600
O2715       O  0.78485160  0.31295229  0.88786901    -0.54400
C2716       C  0.81298367  0.38979829  0.87371678     0.79400
O2717       O  0.78877594  0.31761912  0.99370447    -0.56800
O2718       O  0.76694895  0.35756644  0.78885137    -0.55200
O2719       O  0.85857032  0.34224568  0.79438029    -0.55200
O2720       O  0.81318800  0.37175893  0.89706660    -0.54400
C2721       C  0.04817758  0.31442980  0.82509965     0.14900
C2722       C  0.02815755  0.33413209  0.81528118     0.01800
C2723       C  0.04395071  0.35613637  0.81392402     0.16800
C2724       C  0.07817584  0.35846517  0.82485841     0.26200
C2725       C  0.09691818  0.33891631  0.83815035    -0.40100
C2726       C  0.08193780  0.31685907  0.83728299     0.33300
C2727       C  0.98987129  0.33211120  0.81306132     0.01900
F2728       F  0.02538520  0.37560037  0.80540850    -0.12400
F2729       F  0.09958238  0.29770648  0.84964669    -0.12900
C2730       C  0.97042078  0.32108924  0.84511728     0.16800
C2731       C  0.93429983  0.32138913  0.84645115     0.26200
C2732       C  0.91640855  0.33328118  0.81631892    -0.40000
C2733       C  0.93570335  0.34323160  0.78300866     0.33200
C2734       C  0.97216413  0.34264429  0.78140348     0.14900
F2735       F  0.98634100  0.31117742  0.87668363    -0.12400
F2736       F  0.91945302  0.35459381  0.75309693    -0.12900
F2737       F  0.91682482  0.31052177  0.87817289    -0.15200
F2738       F  0.98630263  0.35818584  0.91919329    -0.13800
F2739       F  0.03435530  0.29284751  0.82487905    -0.13800
F2740       F  0.09170442  0.38007093  0.82623658    -0.15200
C2741       C  0.30978546  0.41233809  0.96409209     0.14900
C2742       C  0.34227927  0.40776914  0.97951795     0.01800
C2743       C  0.34603182  0.38846485  0.00598977     0.16800
C2744       C  0.31699135  0.37550400  0.02015980     0.26200
C2745       C  0.28410444  0.38082788  0.00635709    -0.40100
C2746       C  0.28102942  0.39874625  0.97693506     0.33300
C2747       C  0.37131583  0.42427392  0.97082018     0.01900
F2748       F  0.37752529  0.38284396  0.01961091    -0.12400
F2749       F  0.24983029  0.40420501  0.96258436    -0.12900
C2750       C  0.39174883  0.43400851  0.83954061     0.16800
C2751       C  0.42189353  0.44687313  0.83010806     0.26200
C2752       C  0.42731695  0.45598096  0.95646829    -0.40000
C2753       C  0.42923934  0.43311162  0.94253590     0.33200
C2754       C  0.40211349  0.41733981  0.95076155     0.14900
F2755       F  0.37601073  0.43493704  0.87657956    -0.12400
F2756       F  0.45751995  0.42587846  0.92049793    -0.12900
F2757       F  0.43752549  0.45785203  0.85902014    -0.15200
F2758       F  0.40575932  0.39532809  0.93844975    -0.13800
F2759       F  0.30574239  0.43040689  0.93740867    -0.13800
F2760       F  0.32084938  0.35800028  0.04796728    -0.15200
C2761       C  0.61039662  0.43182003  0.81809672     0.14900
C2762       C  0.62039957  0.41692232  0.78732344     0.01800
C2763       C  0.58941858  0.42292279  0.93808118     0.16800
C2764       C  0.55948660  0.43648848  0.93550918     0.26200
C2765       C  0.56289554  0.44691106  0.77998224    -0.40100
C2766       C  0.58162440  0.44649475  0.81447061     0.33300
C2767       C  0.65026397  0.40090107  0.79139183     0.01900
F2768       F  0.59334631  0.40406785  0.91541140    -0.12400
F2769       F  0.57099316  0.45977259  0.84502815    -0.12900
C2770       C  0.64938048  0.38341298  0.82189423     0.16800
C2771       C  0.67831029  0.36922737  0.82752857     0.26200
C2772       C  0.70870421  0.37219011  0.80258876    -0.40000
C2773       C  0.70871342  0.38870856  0.77044807     0.33200
C2774       C  0.67982030  0.40305562  0.76505103     0.14900
F2775       F  0.62046783  0.38015209  0.84638977    -0.12400
F2776       F  0.73738564  0.39193582  0.74569161    -0.12900
F2777       F  0.67674511  0.35278722  0.85782595    -0.15200
F2778       F  0.68284297  0.44570207  0.93717171    -0.13800
F2779       F  0.62857537  0.43218354  0.85150018    -0.13800
F2780       F  0.53547829  0.43056421  0.90978912    -0.15200
C2781       C  0.84200178  0.44471452  0.92038500     0.14900
C2782       C  0.81987326  0.46122907  0.90298524     0.01800
C2783       C  0.79300749  0.45357910  0.88042886     0.16800
C2784       C  0.79037347  0.43017816  0.87198297     0.26200
C2785       C  0.81340202  0.41371472  0.88780442    -0.40100
C2786       C  0.83824411  0.42096722  0.91360017     0.33300
C2787       C  0.82769243  0.48642936  0.90196515     0.01900
F2788       F  0.77019656  0.46899898  0.86503593    -0.12400
F2789       F  0.86042346  0.40534997  0.92973205    -0.12900
C2790       C  0.84953644  0.49580281  0.87061070     0.16800
C2791       C  0.85095970  0.51973993  0.86243335     0.26200
C2792       C  0.83035497  0.53495320  0.88547231    -0.40000
C2793       C  0.81139253  0.52572290  0.91973094     0.33200
C2794       C  0.80983071  0.50156154  0.92766692     0.14900
F2795       F  0.86797321  0.48159420  0.84625737    -0.12400
F2796       F  0.78369488  0.54276067  0.78200180    -0.12900
F2797       F  0.87137379  0.52792940  0.83065955    -0.15200
F2798       F  0.78961211  0.49289279  0.95920224    -0.13800
F2799       F  0.86811986  0.45170266  0.94235253    -0.13800
F2800       F  0.76554189  0.42359832  0.84775029    -0.15200
C2801       C  0.62559305  0.51078295  0.76676454     0.14900
C2802       C  0.62090278  0.53292880  0.78256871     0.01800
C2803       C  0.58670975  0.54500230  0.95217205     0.16800
C2804       C  0.55654272  0.53171960  0.95190991     0.26200
C2805       C  0.55722264  0.50936258  0.93634296    -0.40100
C2806       C  0.59719868  0.49632439  0.76187995     0.33300
C2807       C  0.65089791  0.54898733  0.78679383     0.01900
F2808       F  0.58362813  0.56731559  0.96321604    -0.12400
F2809       F  0.60343006  0.47722742  0.74080136    -0.12900
C2810       C  0.67850083  0.55092713  0.75738249     0.16800
C2811       C  0.70792773  0.56408654  0.76358990     0.26200
C2812       C  0.70967210  0.57701560  0.79798003    -0.40000
C2813       C  0.68098003  0.57670281  0.82569100     0.33200
C2814       C  0.65269669  0.56225938  0.82103604     0.14900
F2815       F  0.68194870  0.53724320  0.88817368    -0.12400
F2816       F  0.68083102  0.58962649  0.85857048    -0.12900
F2817       F  0.73918614  0.56029873  0.90408366    -0.15200
F2818       F  0.62835610  0.56018208  0.85177856    -0.13800
F2819       F  0.65774920  0.50265696  0.75645019    -0.13800
F2820       F  0.52683837  0.54068633  0.96851353    -0.15200
C2821       C  0.17356315  0.44630388  0.00085233     0.14900
C2822       C  0.15496281  0.46240479  0.97788026     0.01800
C2823       C  0.13374772  0.45442443  0.94875336     0.16800
C2824       C  0.13399187  0.43099674  0.93985496     0.26200
C2825       C  0.15610740  0.41530011  0.95936709    -0.40100
C2826       C  0.17388511  0.42285354  0.99195949     0.33300
C2827       C  0.16249855  0.48745598  0.97864225     0.01900
F2828       F  0.11506954  0.46745361  0.08531365    -0.12400
F2829       F  0.19324525  0.40790374  0.01377460    -0.12900
C2830       C  0.19579252  0.49533093  0.96585015     0.16800
C2831       C  0.20166808  0.51885234  0.95676208     0.26200
C2832       C  0.17437832  0.53503235  0.96078652    -0.40000
C2833       C  0.14179627  0.52732729  0.97694305     0.33200
C2834       C  0.13584847  0.50366082  0.98554659     0.14900
F2835       F  0.22185165  0.47996870  0.95818924    -0.12400
F2836       F  0.11510206  0.54246848  0.98196952    -0.12900
F2837       F  0.23310814  0.52527539  0.93982898    -0.15200
F2838       F  0.10358170  0.49639233  0.99831647    -0.13800
F2839       F  0.19331099  0.45358253  0.03005134    -0.13800
F2840       F  0.11467347  0.42414958  0.90994916    -0.15200
C2841       C  0.32729591  0.57148186  0.94906377     0.14900
C2842       C  0.33366632  0.54785212  0.95795784     0.01800
C2843       C  0.30914587  0.53493506  0.98192322     0.16800
C2844       C  0.27924500  0.54557434  0.99794110     0.26200
C2845       C  0.27293359  0.56935810  0.98974167    -0.40100
C2846       C  0.29707851  0.58216342  0.96474894     0.33300
C2847       C  0.36747101  0.53703960  0.94681791     0.01900
F2848       F  0.31507856  0.51218667  0.99148687    -0.12400
F2849       F  0.29159258  0.60502393  0.95580013    -0.12900
C2850       C  0.40314863  0.53264335  0.81577004     0.16800
C2851       C  0.43316475  0.51888337  0.81119505     0.26200
C2852       C  0.42890601  0.51034150  0.93809920    -0.40000
C2853       C  0.40040710  0.50605593  0.91507916     0.33200
C2854       C  0.36982993  0.51910799  0.91981837     0.14900
F2855       F  0.40221190  0.54966236  0.84251701    -0.12400
F2856       F  0.40118505  0.48849874  0.88974883    -0.12900
F2857       F  0.46013658  0.52297084  0.83405052    -0.15200
F2858       F  0.34198736  0.51363456  0.89928447    -0.13800
F2859       F  0.35064324  0.58426079  0.92579816    -0.13800
F2860       F  0.25723855  0.53274468  0.02294743    -0.15200
C2861       C  0.05252839  0.61550315  0.93543320     0.14900
C2862       C  0.02361408  0.60880286  0.79467171     0.01800
C2863       C  0.02980367  0.59078326  0.82287830     0.16800
C2864       C  0.06246301  0.58795836  0.83835672     0.26200
C2865       C  0.09017651  0.59967498  0.98600592    -0.40100
C2866       C  0.08486275  0.61471775  0.95263841     0.33300
C2867       C  0.98727362  0.61409039  0.78518036     0.01900
F2868       F  0.00352816  0.57661882  0.83706889    -0.12400
F2869       F  0.11015895  0.62956751  0.93815011    -0.12900
C2870       C  0.96834615  0.58644895  0.93015596     0.16800
C2871       C  0.93209122  0.58796202  0.93372594     0.26200
C2872       C  0.91428320  0.61686569  0.78900147    -0.40000
C2873       C  0.93401444  0.63408277  0.80549286     0.33200
C2874       C  0.97025302  0.63289717  0.80304422     0.14900
F2875       F  0.98343814  0.56597969  0.92047970    -0.12400
F2876       F  0.91812216  0.65124130  0.82619399    -0.12900
F2877       F  0.91305329  0.56880910  0.92787736    -0.15200
F2878       F  0.98857418  0.64881397  0.82168221    -0.13800
F2879       F  0.04744992  0.63079957  0.90437846    -0.13800
F2880       F  0.06665357  0.57104358  0.86713924    -0.15200
C2881       C  0.74341585  0.19467470  0.04545051     0.14900
C2882       C  0.72638614  0.21485155  0.03197951     0.01800
C2883       C  0.69551194  0.21278528  0.01239394     0.16800
C2884       C  0.68276946  0.19086682  0.00440587     0.26200
C2885       C  0.70048873  0.17055399  0.01640293    -0.40100
C2886       C  0.73042329  0.17267713  0.03803462     0.33300
C2887       C  0.74267644  0.23796044  0.03379298     0.01900
F2888       F  0.67845869  0.23210925  0.99962458    -0.12400
F2889       F  0.74856278  0.15352467  0.04937166    -0.12900
C2890       C  0.76494415  0.24611400  0.00185940     0.16800
C2891       C  0.77787442  0.26872025  0.00079871     0.26200
C2892       C  0.77124673  0.27447890  0.86777006    -0.40000
C2893       C  0.74189935  0.26977157  0.89358099     0.33200
C2894       C  0.72726669  0.24752553  0.89635803     0.14900
F2895       F  0.77343030  0.23230191  0.97102168    -0.12400
F2896       F  0.72608581  0.28703149  0.91407323    -0.12900
F2897       F  0.79919932  0.27591428  0.96913522    -0.15200
F2898       F  0.69807185  0.24358138  0.92004419    -0.13800
F2899       F  0.77351530  0.19631013  0.06407779    -0.13800
F2900       F  0.65344096  0.18952422  0.98422664    -0.15200
C2901       C  0.20295108  0.25138213  0.00004655     0.14900
C2902       C  0.23239275  0.24002828  0.98371109     0.01800
C2903       C  0.25581449  0.25245803  0.95751240     0.16800
C2904       C  0.24840580  0.27520498  0.94475207     0.26200
C2905       C  0.21780456  0.28620157  0.95887042    -0.40100
C2906       C  0.19596963  0.27452091  0.98817022     0.33300
C2907       C  0.23522684  0.21444331  0.98575038     0.01900
F2908       F  0.28454022  0.24181689  0.94169418    -0.12400
F2909       F  0.16643270  0.28476187  0.00265907    -0.12900
C2910       C  0.22135199  0.20226729  0.95518471     0.16800
C2911       C  0.23030299  0.17910944  0.94978158     0.26200
C2912       C  0.25297133  0.16744321  0.97537509    -0.40000
C2913       C  0.26497159  0.17920915  0.00781432     0.33200
C2914       C  0.25654332  0.20269344  0.01254779     0.14900
F2915       F  0.20109668  0.21342081  0.92861767    -0.12400
F2916       F  0.29360236  0.16892833  0.84622686    -0.12900
F2917       F  0.21782311  0.16840954  0.91835670    -0.15200
F2918       F  0.27779923  0.21508054  0.85115918    -0.13800
F2919       F  0.17984662  0.23960332  0.02523974    -0.13800
F2920       F  0.27051074  0.28613780  0.91722161    -0.15200
C2921       C  0.51769826  0.09135068  0.91629166     0.14900
C2922       C  0.50781627  0.10968778  0.89048115     0.01800
C2923       C  0.53316639  0.12539433  0.87434995     0.16800
C2924       C  0.56258289  0.12416685  0.05435071     0.26200
C2925       C  0.57697001  0.10586008  0.91348152    -0.40100
C2926       C  0.55171216  0.08961607  0.92811136     0.33300
C2927       C  0.47034026  0.11386431  0.88562509     0.01900
F2928       F  0.51789631  0.14373311  0.01995016    -0.12400
F2929       F  0.55968203  0.07232098  0.95485487    -0.12900
C2930       C  0.45337567  0.13136411  0.90713079     0.16800
C2931       C  0.41714420  0.13196544  0.91154441     0.26200
C2932       C  0.39714525  0.11516818  0.89416804    -0.40000
C2933       C  0.41413197  0.09893931  0.86958288     0.33200
C2934       C  0.45047514  0.09813317  0.86575739     0.14900
F2935       F  0.47199687  0.14672327  0.92666646    -0.12400
F2936       F  0.39575797  0.08252552  0.85220356    -0.12900
F2937       F  0.40168866  0.14829463  0.93454481    -0.15200
F2938       F  0.46630977  0.08108181  0.84476456    -0.13800
F2939       F  0.49379185  0.07582148  0.93193162    -0.13800
F2940       F  0.58502265  0.14129554  0.04149890    -0.15200
C2941       C  0.10629557  0.01036763  0.88927737     0.14900
C2942       C  0.10837038  0.03250317  0.87023903     0.01800
C2943       C  0.08111845  0.04035895  0.84746328     0.16800
C2944       C  0.05208574  0.01830834  0.00108398     0.26200
C2945       C  0.05019684  0.00369092  0.86170918    -0.40100
C2946       C  0.07710391  0.99644401  0.88608476     0.33300
C2947       C  0.13879417  0.04743745  0.87496634     0.01900
F2948       F  0.09886193  0.04015152  0.97024030    -0.12400
F2949       F  0.07485730  0.97630150  0.90812913    -0.12900
C2950       C  0.17124899  0.04167390  0.85709732     0.16800
C2951       C  0.20082278  0.05420459  0.86505157     0.26200
C2952       C  0.19860137  0.07205179  0.89236742    -0.40000
C2953       C  0.16581886  0.07849288  0.90872144     0.33200
C2954       C  0.13602674  0.06669629  0.89918386     0.14900
F2955       F  0.17435993  0.02353715  0.83264996    -0.12400
F2956       F  0.16274156  0.09606362  0.93434542    -0.12900
F2957       F  0.23177358  0.04789037  0.84786866    -0.15200
F2958       F  0.10462885  0.07355147  0.91474904    -0.13800
F2959       F  0.13197910  0.00262783  0.91246969    -0.13800
F2960       F  0.03627692  0.01915124  0.96593788    -0.15200
C2961       C  0.79906779  0.03868467  0.90052131     0.14900
C2962       C  0.83197845  0.04906780  0.89626329     0.01800
C2963       C  0.82101602  0.07245536  0.04189680     0.16800
C2964       C  0.79127471  0.08552084  0.05162069     0.26200
C2965       C  0.75982447  0.07434336  0.06316871    -0.40100
C2966       C  0.75861637  0.04993529  0.06431608     0.33300
C2967       C  0.86335114  0.03447361  0.88804298     0.01900
F2968       F  0.85121826  0.08364311  0.03143171    -0.12400
F2969       F  0.73878051  0.04103994  0.91749594    -0.12900
C2970       C  0.85343953  0.01596826  0.01131712     0.16800
C2971       C  0.88294637  0.00191697  0.00762055     0.26200
C2972       C  0.92156137  0.00498583  0.87416855    -0.40000
C2973       C  0.91900866  0.01894585  0.90772082     0.33200
C2974       C  0.89038317  0.03361595  0.91439874     0.14900
F2975       F  0.82659660  0.01219045  0.98804196    -0.12400
F2976       F  0.94415119  0.01820752  0.93439364    -0.12900
F2977       F  0.88340643  0.98509800  0.98097670    -0.15200
F2978       F  0.88883994  0.04674517  0.94705186    -0.13800
F2979       F  0.79568934  0.01538574  0.89788581    -0.13800
F2980       F  0.79350740  0.10901414  0.05101857    -0.15200
C2981       C  0.70322574  0.74146304  0.00149792     0.14900
C2982       C  0.71876848  0.73876492  0.85963790     0.01800
C2983       C  0.73343050  0.75823516  0.87573224     0.16800
C2984       C  0.71965242  0.78037152  0.86834676     0.26200
C2985       C  0.69128868  0.78336022  0.84425703    -0.40100
C2986       C  0.68993156  0.76349935  0.99249864     0.33300
C2987       C  0.73779957  0.71648706  0.86004369     0.01900
F2988       F  0.76255809  0.75595713  0.89628826    -0.12400
F2989       F  0.66443052  0.76574348  0.96635307    -0.12900
C2990       C  0.76502757  0.71333639  0.83133679     0.16800
C2991       C  0.78240854  0.69208579  0.82953083     0.26200
C2992       C  0.77317263  0.67363701  0.85694210    -0.40000
C2993       C  0.74704968  0.67724285  0.88707065     0.33200
C2994       C  0.72900552  0.69839741  0.88807425     0.14900
F2995       F  0.77687332  0.72688287  0.96379925    -0.12400
F2996       F  0.73760208  0.65987302  0.91405721    -0.12900
F2997       F  0.80616806  0.68431296  0.95863809    -0.15200
F2998       F  0.70223772  0.70093739  0.91545949    -0.13800
F2999       F  0.69048151  0.72285650  0.98385863    -0.13800
F3000       F  0.73602921  0.79908344  0.88156574    -0.15200
C3001       C  0.61999279  0.95300301  0.01773000     0.14900
C3002       C  0.64253638  0.96121681  0.04529422     0.01800
C3003       C  0.66375332  0.94527736  0.06542356     0.16800
C3004       C  0.66558955  0.92213742  0.05452729     0.26200
C3005       C  0.64638306  0.91463259  0.02305682    -0.40100
C3006       C  0.62190419  0.92990899  0.00668053     0.33300
C3007       C  0.64999160  0.98642178  0.04509081     0.01900
F3008       F  0.68481596  0.95259415  0.09334946    -0.12400
F3009       F  0.60132919  0.92293082  0.97803169    -0.12900
C3010       C  0.62391001  0.00292278  0.05337718     0.16800
C3011       C  0.63020048  0.02668209  0.04502426     0.26200
C3012       C  0.66238638  0.03416792  0.02719817    -0.40000
C3013       C  0.68862200  0.01750148  0.02016651     0.33200
C3014       C  0.68273446  0.99408799  0.02988806     0.14900
F3015       F  0.59198606  0.99594598  0.06797312    -0.12400
F3016       F  0.71985575  0.02362172  0.00229366    -0.12900
F3017       F  0.60406008  0.04208399  0.05174909    -0.15200
F3018       F  0.70845303  0.97861765  0.02137071    -0.13800
F3019       F  0.59866235  0.96787176  0.99837239    -0.13800
F3020       F  0.69322427  0.90909962  0.90688079    -0.15200
C3021       C  0.88259537  0.92374009  0.83439713     0.14900
C3022       C  0.86256163  0.92237989  0.87072177     0.01800
C3023       C  0.87142874  0.93658832  0.90157599     0.16800
C3024       C  0.90035713  0.95115790  0.89658711     0.26200
C3025       C  0.92018258  0.95274861  0.86028386    -0.40100
C3026       C  0.91116774  0.93873257  0.82919359     0.33300
C3027       C  0.83379981  0.90529550  0.87796936     0.01900
F3028       F  0.85241730  0.93597489  0.93691138    -0.12400
F3029       F  0.93899031  0.92672306  0.98273908    -0.12900
C3030       C  0.83534999  0.88837002  0.90921354     0.16800
C3031       C  0.80630867  0.87497539  0.92152082     0.26200
C3032       C  0.77521826  0.87774060  0.90204816    -0.40000
C3033       C  0.77468859  0.89298466  0.86803995     0.33200
C3034       C  0.80373289  0.90676698  0.85625385     0.14900
F3035       F  0.86503488  0.88511927  0.92828987    -0.12400
F3036       F  0.74530783  0.89596055  0.84814373    -0.12900
F3037       F  0.80831885  0.85965860  0.95323402    -0.15200
F3038       F  0.80169764  0.92252926  0.82525392    -0.13800
F3039       F  0.88806513  0.89442164  0.99588992    -0.13800
F3040       F  0.91080449  0.96247235  0.92812719    -0.15200
C3041       C  0.26613452  0.73516552  0.96989774     0.14900
C3042       C  0.23132721  0.73024816  0.98157907     0.01800
C3043       C  0.20964145  0.74826634  0.99519274     0.16800
C3044       C  0.22225541  0.77099165  0.99559098     0.26200
C3045       C  0.25620043  0.77611106  0.98068710    -0.40100
C3046       C  0.27830612  0.75794479  0.96889844     0.33300
C3047       C  0.21719455  0.70711316  0.97397026     0.01900
F3048       F  0.17575525  0.74410637  0.00580037    -0.12400
F3049       F  0.31128990  0.76243416  0.95459195    -0.12900
C3050       C  0.23213503  0.68687892  0.99034577     0.16800
C3051       C  0.22462710  0.66517862  0.97588537     0.26200
C3052       C  0.20169792  0.66326597  0.94500163    -0.40000
C3053       C  0.18453646  0.68342943  0.93114007     0.33200
C3054       C  0.19237591  0.70512583  0.94533190     0.14900
F3055       F  0.25528911  0.68828387  0.01908965    -0.12400
F3056       F  0.16436090  0.68694188  0.05740597    -0.12900
F3057       F  0.24152326  0.64632475  0.99051362    -0.15200
F3058       F  0.17743564  0.72439216  0.92903058    -0.13800
F3059       F  0.28759243  0.71819357  0.95618662    -0.13800
F3060       F  0.20039114  0.78829316  0.00698534    -0.15200
C3061       C  0.27746657  0.95426938  0.99524171     0.14900
C3062       C  0.30561907  0.96013928  0.87134615     0.01800
C3063       C  0.33164718  0.94327772  0.87550158     0.16800
C3064       C  0.32418079  0.91980097  0.87112269     0.26200
C3065       C  0.29072817  0.91311805  0.86153082    -0.40100
C3066       C  0.26376134  0.92962982  0.86368968     0.33300
C3067       C  0.31457604  0.98467327  0.86104312     0.01900
F3068       F  0.36484084  0.94978592  0.88003580    -0.12400
F3069       F  0.24313736  0.92641293  0.96585060    -0.12900
C3070       C  0.30086046  0.00254329  0.88422523     0.16800
C3071       C  0.30145959  0.02551502  0.86897010     0.26200
C3072       C  0.31455304  0.03085238  0.82957082    -0.40000
C3073       C  0.33117343  0.01317647  0.80787103     0.33200
C3074       C  0.33134691  0.99032956  0.82360878     0.14900
F3075       F  0.28476073  0.99753778  0.92053021    -0.12400
F3076       F  0.36441205  0.02641074  0.94489443    -0.12900
F3077       F  0.28665919  0.04213009  0.89168465    -0.15200
F3078       F  0.36074154  0.97990863  0.96046886    -0.13800
F3079       F  0.25439056  0.97094105  0.98463158    -0.13800
F3080       F  0.35047144  0.90411498  0.87188109    -0.15200
C3081       C  0.14746764  0.90621390  0.91105559     0.14900
C3082       C  0.13501622  0.90477670  0.87288967     0.01800
C3083       C  0.15128601  0.88948250  0.84604368     0.16800
C3084       C  0.17927496  0.87552994  0.85791122     0.26200
C3085       C  0.19114270  0.87679337  0.89669790    -0.40100
C3086       C  0.17498269  0.89247302  0.92288338     0.33300
C3087       C  0.10396642  0.91869888  0.86315973     0.01900
F3088       F  0.13944817  0.88758393  0.80903359    -0.12400
F3089       F  0.18636228  0.89505092  0.95996563    -0.12900
C3090       C  0.10603597  0.93728495  0.83461212     0.16800
C3091       C  0.07780161  0.95249758  0.83033709     0.26200
C3092       C  0.04711713  0.94948663  0.85490939    -0.40000
C3093       C  0.04540891  0.93070972  0.88336873     0.33200
C3094       C  0.07321688  0.91542245  0.88704586     0.14900
F3095       F  0.13591373  0.94130867  0.81215018    -0.12400
F3096       F  0.01730973  0.92785363  0.90934379    -0.12900
F3097       F  0.08114855  0.97051608  0.80325175    -0.15200
F3098       F  0.07068213  0.89784122  0.91535534    -0.13800
F3099       F  0.13277171  0.92113741  0.93713294    -0.13800
F3100       F  0.19393724  0.86035426  0.83216732    -0.15200
C3101       C  0.44633058  0.83502487  0.88012401     0.14900
C3102       C  0.46616841  0.84442515  0.90916457     0.01800
C3103       C  0.44954364  0.85624454  0.94047940     0.16800
C3104       C  0.41356633  0.85722030  0.94459795     0.26200
C3105       C  0.39333485  0.84660964  0.91699601    -0.40100
C3106       C  0.41000371  0.83623034  0.88383161     0.33300
C3107       C  0.50392545  0.84058962  0.90925007     0.01900
F3108       F  0.47282194  0.88405279  0.76074727    -0.12400
F3109       F  0.39125984  0.82629336  0.85620681    -0.12900
C3110       C  0.52689510  0.85393867  0.88394768     0.16800
C3111       C  0.56255927  0.85298851  0.88932695     0.26200
C3112       C  0.57554704  0.83887905  0.92049131    -0.40000
C3113       C  0.55254052  0.82424151  0.94372855     0.33200
C3114       C  0.51709257  0.82510112  0.93804356     0.14900
F3115       F  0.51459489  0.86896020  0.85581977    -0.12400
F3116       F  0.56412059  0.80970679  0.97305218    -0.12900
F3117       F  0.58388773  0.86719081  0.86606299    -0.15200
F3118       F  0.49533652  0.81139339  0.96171907    -0.13800
F3119       F  0.46212190  0.82393030  0.84920031    -0.13800
F3120       F  0.40360207  0.89126559  0.77053917    -0.15200
loop_ 
_geom_bond_atom_site_label_1 
_geom_bond_atom_site_label_2 
_geom_bond_distance 
_geom_bond_site_symmetry_2 
_ccdc_geom_bond_type 
O1            C4   1.267       .  A
O1           Cd6   2.474       .  S
C2            O7   1.270       .  A
C2          O531   1.262       .  A
C2          C505   1.481       .  S
O3            C9   1.272   1_554  A
O3        Cd2606   2.480   1_554  S
C4           O12   1.264       .  A
C4          C485   1.487       .  S
C5            O8   1.262       .  A
C5          O530   1.269       .  A
C5          C445   1.481       .  S
Cd6          O13   2.455       .  S
Cd6          O12   2.478       .  S
Cd6           O7   2.533       .  S
Cd6           O8   2.414       .  S
Cd6         O523   2.474       .  S
Cd6         O531   2.425       .  S
Cd6         O530   2.527       .  S
C9         O2613   1.264       .  A
C9          C465   1.471       .  S
O10        C2605   1.271       .  A
O10       Cd2606   2.481       .  S
O11        C2602   1.266       .  A
O11       Cd2606   2.381       .  S
O13         C529   1.263       .  A
O14          C17   1.270       .  A
O14         Cd19   2.465       .  S
C15          O24   1.262       .  A
C15          O20   1.266       .  A
C15         C432   1.479       .  S
O16        C2622   1.263       .  A
O16       Cd2619   2.483   1_554  S
C17          O25   1.268       .  A
C17         C512   1.484       .  S
C18          O21   1.265       .  A
C18         O543   1.269       .  A
C18         C905   1.474       .  S
Cd19         O26   2.451       .  S
Cd19         O25   2.450       .  S
Cd19         O24   2.452       .  S
Cd19         O20   2.502       .  S
Cd19         O21   2.437       .  S
Cd19        O536   2.468       .  S
Cd19        O543   2.487       .  S
C22          O26   1.262       .  A
C22         O536   1.265       .  A
C22         C405   1.483       .  S
O23        C2618   1.268   1_554  A
O23       Cd2619   2.473   1_554  S
C27         C492   1.504       .  S
C27          C28   1.417       .  A
C27          C32   1.404   1_455  A
C28         C345   1.477   1_565  S
C28          C29   1.397   1_465  A
C29          C30   1.406   1_545  A
C29          H34   1.081       .  S
C30         C372   1.499   1_565  S
C30          C31   1.428       .  A
C31         C425   1.496       .  S
C31          C32   1.414       .  A
C32          H33   1.079       .  S
O35          C38   1.271       .  A
O35         Cd40   2.509       .  S
C36          O45   1.265       .  A
C36          O41   1.270       .  A
C36         C352   1.477       .  S
O37          C43   1.267       .  A
O37       Cd2640   2.483       .  S
C38          O46   1.263       .  A
C38         C332   1.478       .  S
C39          O42   1.265       .  A
C39         O564   1.271       .  A
C39         C312   1.482       .  S
Cd40         O47   2.437       .  S
Cd40         O46   2.389       .  S
Cd40         O45   2.439       .  S
Cd40         O41   2.508       .  S
Cd40         O42   2.434       .  S
Cd40        O557   2.490       .  S
Cd40        O564   2.499       .  S
C43        O2647   1.262       .  A
C43         C472   1.486       .  S
O44        C2639   1.272       .  A
O44       Cd2640   2.507       .  S
O47         C563   1.265       .  A
O48          C51   1.266       .  A
O48         Cd53   2.480       .  S
C49          O58   1.265       .  A
C49          O54   1.265       .  A
C49         C285   1.484       .  S
O50          C56   1.267       .  A
O50        Cd573   2.470       .  S
C51          O59   1.262       .  A
C51         C412   1.479       .  S
C52          O55   1.264       .  A
C52        O2657   1.269       .  A
C52         C325   1.477       .  S
Cd53         O60   2.484       .  S
Cd53         O59   2.413       .  S
Cd53         O58   2.445       .  S
Cd53         O54   2.485       .  S
Cd53         O55   2.425       .  S
Cd53       O2650   2.424       .  S
Cd53       O2657   2.496       .  S
C56         O580   1.263       .  A
C56         C365   1.484       .  S
O57         C572   1.269       .  A
O57        Cd573   2.521       .  S
O60        C2656   1.265       .  A
O61          C64   1.264       .  A
O61        Cd586   2.448       .  S
C62          O67   1.267       .  A
C62         O591   1.263       .  A
C62         C265   1.480       .  S
O63          C69   1.266       .  A
O63         Cd66   2.463       .  S
C64         O592   1.267       .  A
C64         C245   1.488       .  S
C65          O70   1.265       .  A
C65        O2668   1.263       .  A
C65         C452   1.492       .  S
Cd66         O73   2.435       .  S
Cd66         O72   2.508       .  S
Cd66         O71   2.427       .  S
Cd66         O70   2.507       .  S
Cd66       O2661   2.448       .  S
Cd66       O2667   2.506   1_554  S
Cd66       O2668   2.480       .  S
O67        Cd586   2.483       .  S
O68         C585   1.262       .  A
O68        Cd586   2.451       .  S
C69          O73   1.266       .  A
C69         C232   1.483       .  S
O71        C2662   1.264       .  A
O72        C2664   1.265       .  A
O74          C77   1.269       .  A
O74         Cd79   2.489   1_556  S
C75          O84   1.263   1_556  A
C75          O80   1.267       .  A
C75         C212   1.491       .  S
O76          C82   1.268       .  A
O76         Cd79   2.524       .  S
C77          O85   1.266       .  A
C77         C272   1.479       .  S
C78          O83   1.273       .  A
C78          O81   1.268   1_554  A
C78         C392   1.485       .  S
Cd79         O86   2.431       .  S
Cd79         O85   2.445   1_554  S
Cd79         O84   2.456       .  S
Cd79         O80   2.497   1_554  S
Cd79         O83   2.495       .  S
Cd79         O81   2.422   1_554  S
C82          O86   1.263       .  A
C82         C192   1.483       .  S
C87         C252   1.494       .  S
C87          C88   1.414       .  A
C87          C92   1.400       .  A
C88         C152   1.478       .  S
C88          C89   1.396       .  A
C89          C90   1.404       .  A
C89          H94   1.088       .  S
C90         C685   1.482       .  S
C90          C91   1.432       .  A
C91         C205   1.517       .  S
C91          C92   1.414       .  A
C92          H93   1.099       .  S
O95         C618   1.261       .  A
O95        Cd620   2.450       .  S
C96         O101   1.264       .  A
C96         O625   1.261       .  A
C96         C145   1.482       .  S
O97         C103   1.261       .  A
O97        Cd100   2.476       .  S
C98         O106   1.267       .  A
C98        O2695   1.265       .  A
C98         C125   1.487       .  S
C99         O104   1.271       .  A
C99         O102   1.265       .  A
C99         C305   1.487       .  S
Cd100       O107   2.476       .  S
Cd100       O106   2.487       .  S
Cd100       O105   2.461       .  S
Cd100       O104   2.517       .  S
Cd100       O102   2.443       .  S
Cd100      O2695   2.469       .  S
Cd100      O2701   2.498       .  S
O101       Cd620   2.519       .  S
C103        O107   1.260       .  A
C103        C225   1.483       .  S
O105       C2696   1.263       .  A
O108        C111   1.265   1_554  A
O108       Cd113   2.392       .  S
C109        O118   1.274       .  A
C109        O114   1.267   1_556  A
C109        C172   1.484       .  S
O110        C636   1.266       .  A
O110       Cd633   2.404       .  S
C111        O119   1.275       .  A
C111        C132   1.491       .  S
C112        O115   1.274       .  A
C112       O2717   1.269   1_554  A
C112        C292   1.487       .  S
Cd113       O120   2.495       .  S
Cd113       O119   2.528   1_554  S
Cd113       O118   2.487   1_554  S
Cd113       O114   2.431       .  S
Cd113       O115   2.491       .  S
Cd113      O2710   2.394       .  S
Cd113      O2717   2.406   1_554  S
C116        O120   1.271       .  A
C116       O2710   1.263       .  A
C116        C185   1.469       .  S
O117        C632   1.269       .  A
O117       Cd633   2.427       .  S
C121        C122   1.410       .  A
C121        C126   1.401   1_556  A
C121        F139   1.358       .  S
C122        C127   1.495   1_455  S
C122        C123   1.408       .  A
C123        C124   1.403       .  A
C123        F128   1.358       .  S
C124        C125   1.411   1_556  A
C124        F140   1.357       .  S
C125        C126   1.406       .  A
C126        F129   1.357       .  S
C127        C130   1.406   1_556  A
C127        C134   1.412       .  A
C130        C131   1.394       .  A
C130        F135   1.358       .  S
C131        C132   1.410   1_554  A
C131        F137   1.358       .  S
C132        C133   1.410       .  A
C133        C134   1.409       .  A
C133        F136   1.358       .  S
C134       F2738   1.358       .  S
F138        C654   1.358       .  S
C141        C142   1.409       .  A
C141        C146   1.407       .  A
C141        F159   1.358       .  S
C142        C147   1.493       .  S
C142        C143   1.408       .  A
C143        C144   1.397       .  A
C143        F148   1.357       .  S
C144        C145   1.403       .  A
C144        F160   1.358       .  S
C145        C146   1.410       .  A
C146        F149   1.357       .  S
C147        C154   1.409       .  A
C147        C670   1.409       .  A
C150        C151   1.400       .  A
C150       C2747   1.403       .  A
C150        F155   1.358   1_556  S
C151       C2752   1.415       .  A
C151        F157   1.348       .  S
C152        C153   1.404       .  A
C152        C671   1.396       .  A
C153        C154   1.404       .  A
C153        F156   1.357       .  S
C154        F158   1.353       .  S
C161        C162   1.408       .  A
C161        C166   1.406       .  A
C161        F179   1.357   1_556  S
C162        C167   1.486       .  S
C162       C2763   1.402       .  A
C163        C164   1.398       .  A
C163        C682   1.405       .  A
C163        F168   1.355       .  S
C164        C685   1.406       .  A
C164        F180   1.356       .  S
C165       C2690   1.494       .  S
C165        C166   1.407       .  A
C165       C2764   1.410       .  A
C166        F169   1.356   1_556  S
C167        C170   1.405       .  A
C167        C174   1.406       .  A
C170        C171   1.400       .  A
C170        F175   1.358       .  S
C171        C172   1.408       .  A
C171        F177   1.358   1_556  S
C172        C173   1.408       .  A
C173        C174   1.404       .  A
C173        F176   1.356       .  S
C174       F2778   1.358       .  S
F178        C694   1.358       .  S
C181        C182   1.408       .  A
C181        C186   1.403       .  A
C181        F199   1.356       .  S
C182        C187   1.482       .  S
C182        C183   1.405       .  A
C183        C184   1.394       .  A
C183        F188   1.358       .  S
C184        C185   1.404       .  A
C184        F200   1.358       .  S
C185        C186   1.403       .  A
C186        F189   1.357       .  S
C187        C190   1.404       .  A
C187        C194   1.406       .  A
C190        C191   1.397       .  A
C190        F195   1.358       .  S
C191        C192   1.407       .  A
C191        F197   1.358       .  S
C192        C193   1.408       .  A
C193        C194   1.402       .  A
C193        F716   1.354       .  S
C194        F198   1.356       .  S
F196       C2793   1.355       .  S
C201        C202   1.411       .  A
C201        C206   1.403       .  A
C201        F219   1.357       .  S
C202        C207   1.508       .  S
C202       C2803   1.411       .  A
C203        C204   1.394       .  A
C203        C722   1.406       .  A
C203        F208   1.358       .  S
C204        C205   1.418       .  A
C204        F220   1.357       .  S
C205        C726   1.414       .  A
C206       C2805   1.413       .  A
C206        F209   1.349       .  S
C207        C210   1.414       .  A
C207        C214   1.413       .  A
C210        C211   1.403       .  A
C210       F2815   1.355       .  S
C211        C212   1.407       .  A
C211       F2817   1.355       .  S
C212        C213   1.407       .  A
C213        C214   1.400       .  A
C213        F216   1.358   1_556  S
C214        F218   1.358   1_556  S
F215        C730   1.356       .  S
F217        C731   1.354       .  S
C221        C222   1.405       .  A
C221        C226   1.400       .  A
C221        F239   1.358       .  S
C222        C227   1.482       .  S
C222        C223   1.405       .  A
C223        C224   1.397       .  A
C223       F2828   1.358       .  S
C224        C225   1.409       .  A
C224        F240   1.358       .  S
C225        C226   1.409       .  A
C226        F229   1.355       .  S
C227        C230   1.405       .  A
C227        C234   1.405       .  A
F228        C743   1.359       .  S
C230        C231   1.395       .  A
C230        F235   1.359       .  S
C231        C232   1.410       .  A
C231        F237   1.357       .  S
C232        C233   1.410       .  A
C233        C234   1.401       .  A
C233        F236   1.356       .  S
C234        F238   1.358       .  S
C241        C242   1.408       .  A
C241        C246   1.406       .  A
C241        F259   1.358       .  S
C242        C247   1.487       .  S
C242        C243   1.403       .  A
C243        C244   1.398       .  A
C243        F248   1.358       .  S
C244        C245   1.410       .  A
C244        F260   1.358       .  S
C245        C246   1.409       .  A
C246        F249   1.358       .  S
C247        C254   1.407       .  A
C247        C770   1.406       .  A
C250        C251   1.398       .  A
C250       C2847   1.401       .  A
C250        F255   1.358       .  S
C251       C2852   1.412       .  A
C251        F257   1.358       .  S
C252        C253   1.400       .  A
C252        C771   1.409       .  A
C253        C254   1.402       .  A
C253        F256   1.347       .  S
C254        F258   1.358       .  S
C261        C266   1.400       .  A
C261        C782   1.403       .  A
C261        F279   1.358       .  S
C262        C267   1.486   1_455  S
C262        C263   1.405       .  A
C262       C2861   1.408       .  A
C263        C264   1.393   1_556  A
C263        F268   1.358       .  S
C264       C2865   1.407   1_554  A
C264        F280   1.358       .  S
C265        C266   1.409       .  A
C265        C784   1.409       .  A
C266        F269   1.357       .  S
C267        C274   1.406       .  A
C267       C2870   1.408       .  A
C270        C271   1.401       .  A
C270        C787   1.405       .  A
C270        F275   1.357       .  S
C271        C792   1.407       .  A
C271        F277   1.358       .  S
C272        C273   1.406       .  A
C272       C2871   1.407       .  A
C273        C274   1.400       .  A
C273        F276   1.358       .  S
C274        F278   1.358       .  S
C281        C282   1.404       .  A
C281        C286   1.402       .  A
C281        F299   1.358       .  S
C282        C287   1.483       .  S
C282        C283   1.404       .  A
C283        C284   1.396       .  A
C283        F288   1.356       .  S
C284        C285   1.407       .  A
C284        F300   1.358       .  S
C285        C286   1.410       .  A
C286        F289   1.355       .  S
C287        C290   1.407       .  A
C287        C814   1.404       .  A
C290        C291   1.402       .  A
C290        F295   1.359       .  S
C291        C812   1.408       .  A
C291        F297   1.358       .  S
C292        C293   1.410       .  A
C292       C2891   1.411       .  A
C293        C294   1.406       .  A
C293        F296   1.358       .  S
C294       C2887   1.404       .  A
C294        F298   1.354       .  S
C301        C302   1.407       .  A
C301        C306   1.406       .  A
C301        F319   1.357       .  S
C302        C307   1.489       .  S
C302        C303   1.405       .  A
C303        C304   1.399       .  A
C303        F308   1.357       .  S
C304        C305   1.409       .  A
C304        F320   1.358       .  S
C305        C306   1.408       .  A
C306        F309   1.357       .  S
C307        C310   1.407       .  A
C307        C314   1.407       .  A
C310        C311   1.400       .  A
C310        F315   1.358       .  S
C311        C312   1.406       .  A
C311        F317   1.358       .  S
C312        C313   1.408       .  A
C313        C314   1.405       .  A
C313        F836   1.358       .  S
C314        F838   1.357       .  S
F316       C2913   1.357       .  S
F318       C2914   1.354       .  S
C321        C322   1.404       .  A
C321        C326   1.396       .  A
C321        F339   1.358       .  S
C322        C327   1.479       .  S
C322        C323   1.406       .  A
C323       C2924   1.403       .  A
C323       F2928   1.357       .  S
C324        C843   1.407       .  A
C324        C845   1.410       .  A
C324        F340   1.358       .  S
C325        C326   1.408       .  A
C325       C2924   1.406       .  A
C326        F329   1.359       .  S
C327        C330   1.402       .  A
C327        C334   1.406       .  A
F328        C843   1.357       .  S
C330        C331   1.395       .  A
C330        F335   1.358       .  S
C331        C332   1.409       .  A
C331        F337   1.359       .  S
C332        C333   1.407       .  A
C333        C334   1.403       .  A
C333        F336   1.358       .  S
C334        F338   1.357       .  S
C341        C342   1.408       .  A
C341        C346   1.396       .  A
C341        F359   1.355       .  S
C342        C347   1.486       .  S
C342        C343   1.406       .  A
C343       C2944   1.399       .  A
C343       F2948   1.352   1_554  S
C344        C863   1.398       .  A
C344        C865   1.417       .  A
C344        F360   1.358       .  S
C345        C346   1.397       .  A
C345       C2944   1.404       .  A
C346        F349   1.355   1_545  S
C347        C350   1.406       .  A
C347        C354   1.409       .  A
F348        C863   1.358       .  S
C350        C351   1.395       .  A
C350        F355   1.359       .  S
C351        C352   1.407       .  A
C351        F357   1.357       .  S
C352        C353   1.405       .  A
C353        C354   1.403       .  A
C353        F356   1.357       .  S
C354        F358   1.358       .  S
C361        C362   1.403       .  A
C361       C2966   1.394       .  A
C361        F379   1.358       .  S
C362        C367   1.483       .  S
C362       C2963   1.409       .  A
C363        C364   1.404       .  A
C363        C882   1.408       .  A
C363        F368   1.358       .  S
C364        C365   1.408       .  A
C364        F380   1.358       .  S
C365        C366   1.408       .  A
C366        C881   1.400       .  A
C366        F889   1.356       .  S
C367        C374   1.404       .  A
C367       C2970   1.405       .  A
F369       C2966   1.356       .  S
C370        C371   1.400       .  A
C370        C887   1.406       .  A
C370        F375   1.358       .  S
C371        C892   1.406       .  A
C371        F377   1.351   1_545  S
C372        C373   1.413       .  A
C372       C2971   1.408       .  A
C373        C374   1.396       .  A
C373        F376   1.359       .  S
C374        F378   1.358       .  S
C381        C386   1.398       .  A
C381        C902   1.405       .  A
C381        F399   1.358       .  S
C382        C387   1.478       .  S
C382        C383   1.404       .  A
C382       C2981   1.404       .  A
C383        C384   1.402       .  A
C383        F388   1.357       .  S
C384        C385   1.407       .  A
C384        F400   1.358       .  S
C385       C2618   1.474   1_554  S
C385       C2986   1.406   1_554  A
C386        C905   1.405       .  A
C386        F389   1.358       .  S
C387        C390   1.402   1_554  A
C387        C394   1.403       .  A
C390        C391   1.395       .  A
C390       F2995   1.358       .  S
C391        C392   1.410   1_556  A
C391       F2997   1.358       .  S
C392        C393   1.411       .  A
C393        C394   1.405       .  A
C393        F396   1.357       .  S
C394        F398   1.357       .  S
F395        C910   1.358       .  S
F397        C911   1.358       .  S
C401        C402   1.402       .  A
C401        C406   1.397       .  A
C401        F419   1.358       .  S
C402        C407   1.469       .  S
C402        C403   1.399       .  A
C403        C404   1.396       .  A
C403        F408   1.358       .  S
C404        C405   1.410       .  A
C404        F940   1.352       .  S
C405        C406   1.410       .  A
C406        F409   1.358       .  S
C407        C410   1.401   1_565  A
C407        C414   1.400       .  A
C410        C411   1.401       .  A
C410        F415   1.357   1_545  S
C411        C412   1.410       .  A
C411        F417   1.357       .  S
C412        C413   1.411       .  A
C413        C414   1.390   1_545  A
C413        F416   1.358       .  S
C414        F418   1.359       .  S
F420       C3004   1.355       .  S
C421        C422   1.399       .  A
C421        C426   1.400       .  A
C421       F3039   1.354   1_554  S
C422        C427   1.475       .  S
C422        C423   1.400       .  A
C423        C424   1.394       .  A
C423        F428   1.357       .  S
C424        C425   1.408       .  A
C424        F440   1.350       .  S
C425        C426   1.414       .  A
C426       F3029   1.359   1_554  S
C427        C430   1.403       .  A
C427        C434   1.402       .  A
F429        C946   1.357       .  S
C430        C431   1.397       .  A
C430        F435   1.356       .  S
C431        C432   1.406       .  A
C431        F437   1.358       .  S
C432        C433   1.409       .  A
C433        C434   1.400       .  A
C433        F436   1.354       .  S
C434        F438   1.358   1_554  S
F439        C941   1.350       .  S
C441        C442   1.402       .  A
C441        C446   1.396       .  A
C441        F459   1.358       .  S
C442        C447   1.481       .  S
C442        C443   1.406       .  A
C443        C444   1.406       .  A
C443        F448   1.357       .  S
C444        C445   1.409       .  A
C444        F460   1.358       .  S
C445        C446   1.407       .  A
C446        F449   1.358       .  S
C447        C450   1.402       .  A
C447        C454   1.402       .  A
C450        C451   1.403       .  A
C450        F455   1.357       .  S
C451        C452   1.412       .  A
C451        F457   1.357       .  S
C452        C453   1.412       .  A
C453        C454   1.400       .  A
C453       F3056   1.358       .  S
C454        F458   1.356       .  S
F456        C973   1.358       .  S
C461        C982   1.405       .  A
C461        C986   1.398       .  A
C461        F479   1.358       .  S
C462        C467   1.477       .  S
C462        C463   1.405       .  A
C462       C3061   1.404   1_554  A
C463        C464   1.404       .  A
C463        F468   1.357       .  S
C464        C465   1.406   1_554  A
C464        F480   1.357       .  S
C465        C466   1.404       .  A
C466       C3061   1.394       .  A
C466       F3069   1.358       .  S
C467        C470   1.401   1_565  A
C467        C474   1.404   1_554  A
F469        C986   1.358       .  S
C470        C471   1.399       .  A
C470        F475   1.358   1_545  S
C471        C472   1.407   1_554  A
C471        F477   1.351       .  S
C472        C473   1.410       .  A
C473        C474   1.399   1_545  A
C473       F3076   1.358       .  S
C474       F3078   1.358       .  S
F476        C993   1.357       .  S
F478        C994   1.359       .  S
C481        C482   1.406       .  A
C481        C486   1.400       .  A
C481        F499   1.358       .  S
C482        C487   1.490       .  S
C482        C483   1.407       .  A
C483        C484   1.403       .  A
C483        F488   1.358       .  S
C484        C485   1.410       .  A
C484        F500   1.358       .  S
C485        C486   1.409       .  A
C486        F489   1.357       .  S
C487        C490   1.403       .  A
C487        C494   1.409       .  A
C490        C491   1.396       .  A
C490        F495   1.357   1_554  S
C491        C492   1.406       .  A
C491        F497   1.348   1_554  S
C492        C493   1.411       .  A
C493        C494   1.406       .  A
C493        F496   1.357       .  S
C494        F498   1.358       .  S
C501        C502   1.408       .  A
C501        C506   1.407       .  A
C501        F519   1.355       .  S
C502        C507   1.484       .  S
C502        C503   1.403       .  A
C503        C504   1.397       .  A
C503       F1028   1.358       .  S
C504        C505   1.407       .  A
C504       F1040   1.358       .  S
C505        C506   1.408       .  A
C506        F509   1.358       .  S
C507        C510   1.406       .  A
C507        C514   1.404       .  A
F508       C3103   1.353       .  S
C510        C511   1.400       .  A
C510        F515   1.354       .  S
C511        C512   1.408       .  A
C511        F517   1.358       .  S
C512        C513   1.409       .  A
C513        C514   1.401       .  A
C513        F516   1.358       .  S
C514        F518   1.357       .  S
F520       C3104   1.359       .  S
O521        C524   1.272       .  A
O521       Cd526   2.476       .  S
C522       O1051   1.265       .  A
C522        O527   1.273       .  A
C522       C1025   1.474       .  S
O523        C529   1.265       .  A
C524        O532   1.267       .  A
C524       C1005   1.479       .  S
C525       O1050   1.272       .  A
C525        O528   1.266       .  A
C525        C965   1.468       .  S
Cd526      O1043   2.479       .  S
Cd526       O533   2.411       .  S
Cd526       O532   2.388       .  S
Cd526      O1051   2.376       .  S
Cd526       O527   2.501       .  S
Cd526      O1050   2.492       .  S
Cd526       O528   2.397       .  S
C529        C985   1.481       .  S
O533       C1049   1.264       .  A
O534        C537   1.268       .  A
O534       Cd539   2.491       .  S
C535        O544   1.262       .  A
C535        O540   1.267       .  A
C535        C952   1.480       .  S
C537        O545   1.266       .  A
C537       C1032   1.486       .  S
C538       O1063   1.270       .  A
C538        O541   1.266       .  A
C538       C1425   1.483       .  S
Cd539      O1056   2.486       .  S
Cd539       O546   2.461       .  S
Cd539       O545   2.430       .  S
Cd539       O544   2.422       .  S
Cd539       O540   2.522       .  S
Cd539      O1063   2.507       .  S
Cd539       O541   2.418       .  S
C542       O1056   1.265       .  A
C542        O546   1.263       .  A
C542        C925   1.485       .  S
C547       C1012   1.499       .  S
C547        C548   1.432       .  A
C547        C552   1.409   1_455  A
C548        C865   1.504   1_565  S
C548        C549   1.413   1_465  A
C549        C550   1.401   1_545  A
C549        H554   1.083       .  S
C550        C892   1.499   1_565  S
C550        C551   1.414       .  A
C551        C945   1.485       .  S
C551        C552   1.400       .  A
C552        H553   1.083       .  S
O555        C558   1.273       .  A
O555       Cd560   2.500       .  S
C556        O565   1.265       .  A
C556        O561   1.270       .  A
C556        C872   1.482       .  S
O557        C563   1.272       .  A
C558        O566   1.266       .  A
C558        C852   1.486       .  S
C559       O1084   1.271       .  A
C559        O562   1.266       .  A
C559        C832   1.479       .  S
Cd560      O1077   2.479       .  S
Cd560       O567   2.444       .  S
Cd560       O566   2.426       .  S
Cd560       O565   2.454       .  S
Cd560       O561   2.494       .  S
Cd560      O1084   2.510       .  S
Cd560       O562   2.427       .  S
C563        C992   1.492       .  S
O567       C1083   1.262       .  A
O568        C571   1.265       .  A
O568       Cd573   2.469       .  S
C569        O578   1.263       .  A
C569        O574   1.266       .  A
C569        C805   1.477       .  S
O570        C576   1.261       .  A
O570      Cd1093   2.451       .  S
C571        O579   1.261       .  A
C571        C932   1.479       .  S
C572        O575   1.263       .  A
C572        C845   1.482       .  S
Cd573       O580   2.473       .  S
Cd573       O579   2.426       .  S
Cd573       O578   2.434       .  S
Cd573       O574   2.479       .  S
Cd573       O575   2.428       .  S
C576       O1100   1.266       .  A
C576        C885   1.482       .  S
O577       C1092   1.267       .  A
O577      Cd1093   2.504       .  S
O581        C584   1.261       .  A
O581      Cd1106   2.429       .  S
C582       O1111   1.264       .  A
C582        O587   1.267       .  A
C582        C785   1.475       .  S
O583        C589   1.266       .  A
O583       Cd586   2.493       .  S
C584       O1112   1.264       .  A
C584        C765   1.473       .  S
C585        O590   1.265       .  A
C585        C972   1.484       .  S
Cd586       O593   2.413       .  S
Cd586       O592   2.511       .  S
Cd586       O591   2.440       .  S
Cd586       O590   2.488       .  S
O587      Cd1106   2.477       .  S
O588       C1105   1.263       .  A
O588      Cd1106   2.457       .  S
C589        O593   1.262       .  A
C589        C752   1.480       .  S
O594        C597   1.275       .  A
O594       Cd599   2.470       .  S
C595        O604   1.265       .  A
C595        O600   1.271       .  A
C595        C732   1.485       .  S
O596        C602   1.272       .  A
O596       Cd599   2.488       .  S
C597        O605   1.268       .  A
C597        C792   1.472       .  S
C598        O603   1.273       .  A
C598        O601   1.267       .  A
C598        C912   1.471       .  S
Cd599       O606   2.402       .  S
Cd599       O605   2.375       .  S
Cd599       O604   2.422       .  S
Cd599       O600   2.495       .  S
Cd599       O603   2.456       .  S
Cd599       O601   2.410       .  S
C602        O606   1.265       .  A
C602        C712   1.481       .  S
C607        C772   1.495       .  S
C607        C608   1.422       .  A
C607        C612   1.417       .  A
C608        C672   1.510       .  S
C608        C609   1.407       .  A
C609        C610   1.407       .  A
C609        H614   1.076       .  S
C610       C1205   1.493       .  S
C610        C611   1.427       .  A
C611        C725   1.521       .  S
C611        C612   1.418       .  A
C612        H613   1.063       .  S
O615       C1138   1.266       .  A
O615      Cd1140   2.468       .  S
C616       O1145   1.262       .  A
C616        O621   1.266       .  A
C616        C665   1.477       .  S
O617        C623   1.263       .  A
O617       Cd620   2.456       .  S
C618        O626   1.267       .  A
C618        C645   1.488       .  S
C619        O624   1.270       .  A
C619        O622   1.265       .  A
C619        C825   1.496       .  S
Cd620       O627   2.477       .  S
Cd620       O626   2.505       .  S
Cd620       O625   2.478       .  S
Cd620       O624   2.532       .  S
Cd620       O622   2.446       .  S
O621      Cd1140   2.499       .  S
C623        O627   1.261       .  A
C623        C745   1.485       .  S
O628        C631   1.269       .  A
O628       Cd633   2.391       .  S
C629        O638   1.275       .  A
C629        O634   1.269       .  A
C629        C692   1.483       .  S
O630       C1156   1.268       .  A
O630      Cd1153   2.392       .  S
C631        O639   1.276       .  A
C631        C652   1.480       .  S
C632        O635   1.275       .  A
C632        C812   1.477       .  S
Cd633       O640   2.483       .  S
Cd633       O639   2.479       .  S
Cd633       O638   2.463       .  S
Cd633       O634   2.417       .  S
Cd633       O635   2.475       .  S
C636        O640   1.275       .  A
C636        C705   1.471       .  S
O637       C1152   1.271       .  A
O637      Cd1153   2.396       .  S
C641        C642   1.407       .  A
C641        C646   1.401       .  A
C641        F659   1.358       .  S
C642        C647   1.488   1_455  S
C642        C643   1.405       .  A
C643        C644   1.400       .  A
C643        F648   1.358       .  S
C644        C645   1.412       .  A
C644        F660   1.358       .  S
C645        C646   1.408       .  A
C646        F649   1.357       .  S
C647        C650   1.406       .  A
C647        C654   1.409       .  A
C650        C651   1.395       .  A
C650        F655   1.358       .  S
C651        C652   1.407       .  A
C651        F657   1.359       .  S
C652        C653   1.407       .  A
C653        C654   1.404       .  A
C653        F656   1.357       .  S
F658       C1174   1.357       .  S
C661        C662   1.404       .  A
C661        C666   1.400       .  A
C661        F679   1.358       .  S
C662        C667   1.481       .  S
C662        C663   1.406       .  A
C663        C664   1.399       .  A
C663        F668   1.358       .  S
C664        C665   1.405       .  A
C664        F680   1.358       .  S
C665        C666   1.408       .  A
C666        F669   1.356       .  S
C667       C1190   1.403       .  A
C667        C674   1.399       .  A
C670        C671   1.397       .  A
C670        F675   1.356       .  S
C671        F677   1.356       .  S
C672       C1191   1.413       .  A
C672        C673   1.416       .  A
C673        C674   1.400       .  A
C673        F676   1.358       .  S
C674        F678   1.357       .  S
C681        C682   1.411       .  A
C681        C686   1.403       .  A
C681        F699   1.358       .  S
C682        C687   1.487       .  S
C683       C1202   1.401       .  A
C683        C684   1.396       .  A
C683        F688   1.355       .  S
C684       C1205   1.411       .  A
C684        F700   1.358       .  S
C685        C686   1.399       .  A
C686        F689   1.353       .  S
C687        C690   1.405       .  A
C687        C694   1.407       .  A
C690        C691   1.399       .  A
C690        F695   1.354       .  S
C691        C692   1.408       .  A
C691        F697   1.358       .  S
C692        C693   1.407       .  A
C693        C694   1.400       .  A
C693        F696   1.353       .  S
F698       C1214   1.358       .  S
C701        C702   1.406       .  A
C701        C706   1.404       .  A
C701        F719   1.357       .  S
C702        C707   1.482       .  S
C702        C703   1.406       .  A
C703        C704   1.397       .  A
C703        F708   1.358       .  S
C704        C705   1.404       .  A
C704        F720   1.358       .  S
C705        C706   1.404       .  A
C706        F709   1.357       .  S
C707        C710   1.403       .  A
C707        C714   1.406       .  A
C710        C711   1.397       .  A
C710        F715   1.356       .  S
C711        C712   1.410       .  A
C711        F717   1.359       .  S
C712        C713   1.408       .  A
C713        C714   1.401       .  A
C713       F1236   1.356       .  S
C714        F718   1.357       .  S
C721        C722   1.411       .  A
C721        C726   1.403       .  A
C721        F739   1.357       .  S
C722        C727   1.502       .  S
C723       C1242   1.412       .  A
C723        C724   1.401       .  A
C723        F728   1.357       .  S
C724        C725   1.414       .  A
C724        F740   1.357       .  S
C725       C1246   1.415       .  A
C726        F729   1.350       .  S
C727        C730   1.412       .  A
C727        C734   1.412       .  A
C730        C731   1.402       .  A
C731        C732   1.406       .  A
C732        C733   1.404       .  A
C733        C734   1.397       .  A
C733        F736   1.358       .  S
C734        F738   1.357       .  S
F735       C1250   1.355       .  S
F737       C1251   1.357       .  S
C741        C742   1.400       .  A
C741        C746   1.397       .  A
C741        F759   1.358       .  S
C742        C747   1.472       .  S
C742        C743   1.404       .  A
C743        C744   1.397       .  A
C744        C745   1.410       .  A
C744        F760   1.358       .  S
C745        C746   1.410       .  A
C746        F749   1.352       .  S
C747        C750   1.402       .  A
C747        C754   1.403       .  A
F748       C1263   1.358       .  S
C750        C751   1.390       .  A
C750        F755   1.359       .  S
C751        C752   1.409       .  A
C751        F757   1.358       .  S
C752        C753   1.410       .  A
C753        C754   1.403       .  A
C753        F756   1.356       .  S
C754        F758   1.357       .  S
C761        C762   1.407       .  A
C761        C766   1.402       .  A
C761        F779   1.358       .  S
C762        C767   1.481       .  S
C762        C763   1.404       .  A
C763        C764   1.395       .  A
C763        F768   1.358       .  S
C764        C765   1.406       .  A
C764        F780   1.358       .  S
C765        C766   1.405       .  A
C766        F769   1.358       .  S
C767       C1290   1.403       .  A
C767        C774   1.404       .  A
C770        C771   1.402       .  A
C770        F775   1.358       .  S
C771        F777   1.357       .  S
C772       C1291   1.410       .  A
C772        C773   1.411       .  A
C773        C774   1.402       .  A
C773        F776   1.349       .  S
C774        F778   1.358       .  S
C781       C1302   1.405       .  A
C781        C786   1.401       .  A
C781        F799   1.357       .  S
C782        C787   1.475   1_455  S
C782        C783   1.403       .  A
C783        C784   1.396       .  A
C783        F788   1.358       .  S
C784        F800   1.358       .  S
C785       C1304   1.407       .  A
C785        C786   1.407       .  A
C786        F789   1.358       .  S
C787        C794   1.402       .  A
C790       C1307   1.406       .  A
C790        C791   1.402       .  A
C790        F795   1.358       .  S
C791       C1312   1.408       .  A
C791        F797   1.358       .  S
C792        C793   1.407       .  A
C793        C794   1.394       .  A
C793        F796   1.358       .  S
C794        F798   1.358       .  S
C801        C802   1.402       .  A
C801        C806   1.401       .  A
C801        F819   1.357       .  S
C802        C807   1.473       .  S
C802        C803   1.399       .  A
C803        C804   1.395       .  A
C803        F808   1.354       .  S
C804        C805   1.408       .  A
C804        F820   1.358       .  S
C805        C806   1.410       .  A
C806        F809   1.357       .  S
C807        C810   1.402       .  A
C807       C1334   1.401       .  A
C810        C811   1.395       .  A
C810        F815   1.358       .  S
C811       C1332   1.409       .  A
C811        F817   1.358       .  S
C812        C813   1.404       .  A
C813        C814   1.398       .  A
C813        F816   1.357       .  S
C814        F818   1.355       .  S
C821        C822   1.406       .  A
C821        C826   1.408       .  A
C821        F839   1.357       .  S
C822        C827   1.487       .  S
C822        C823   1.402       .  A
C823        C824   1.398       .  A
C823        F828   1.358       .  S
C824        C825   1.413       .  A
C824        F840   1.358       .  S
C825        C826   1.413       .  A
C826        F829   1.357       .  S
C827        C830   1.404       .  A
C827        C834   1.408       .  A
C830        C831   1.400       .  A
C830        F835   1.358       .  S
C831        C832   1.406       .  A
C831        F837   1.358       .  S
C832        C833   1.407       .  A
C833        C834   1.406       .  A
C833       F1356   1.358       .  S
C834       F1358   1.357       .  S
C841        C842   1.402       .  A
C841        C846   1.395       .  A
C841        F859   1.357       .  S
C842        C847   1.483       .  S
C842        C843   1.407       .  A
C844       C1363   1.406       .  A
C844       C1365   1.409       .  A
C844        F860   1.358       .  S
C845        C846   1.407       .  A
C846        F849   1.358       .  S
C847        C850   1.404       .  A
C847        C854   1.406       .  A
F848       C1363   1.357       .  S
C850        C851   1.399       .  A
C850        F855   1.357       .  S
C851        C852   1.410       .  A
C851        F857   1.358       .  S
C852        C853   1.409       .  A
C853        C854   1.403       .  A
C853        F856   1.358       .  S
C854        F858   1.357       .  S
C861        C862   1.405       .  A
C861        C866   1.401   1_545  A
C861        F879   1.358   1_545  S
C862        C867   1.483       .  S
C862        C863   1.400       .  A
C864       C1383   1.406       .  A
C864       C1385   1.407       .  A
C864        F880   1.358       .  S
C865        C866   1.411   1_545  A
C866        F869   1.352       .  S
C867        C870   1.403       .  A
C867        C874   1.406       .  A
F868       C1383   1.352       .  S
C870        C871   1.399       .  A
C870        F875   1.358       .  S
C871        C872   1.407       .  A
C871        F877   1.351       .  S
C872        C873   1.407       .  A
C873        C874   1.401       .  A
C873        F876   1.358       .  S
C874        F878   1.357       .  S
C881        C882   1.407       .  A
C881        F899   1.358       .  S
C882        C887   1.491       .  S
C883       C1402   1.405       .  A
C883        C884   1.402       .  A
C883        F888   1.357       .  S
C884        C885   1.407       .  A
C884        F900   1.357       .  S
C885        C886   1.411       .  A
C886       C1401   1.398       .  A
C886       F1409   1.358       .  S
C887        C894   1.408       .  A
C890       C1407   1.403       .  A
C890        C891   1.401       .  A
C890        F895   1.358       .  S
C891       C1412   1.408       .  A
C891        F897   1.349   1_545  S
C892        C893   1.410       .  A
C893        C894   1.403       .  A
C893        F896   1.358       .  S
C894        F898   1.357       .  S
C901       C1422   1.404       .  A
C901        C906   1.393       .  A
C901        F919   1.352       .  S
C902        C907   1.481       .  S
C902        C903   1.407       .  A
C903        C904   1.401       .  A
C903        F908   1.356       .  S
C904        C905   1.405       .  A
C904        F920   1.358       .  S
C906       C1425   1.404       .  A
C906        F909   1.358       .  S
C907        C910   1.406       .  A
C907        C914   1.407       .  A
C910        C911   1.398       .  A
C911        C912   1.406       .  A
C912        C913   1.402       .  A
C913        C914   1.397       .  A
C913        F916   1.358       .  S
C914        F918   1.355       .  S
F915       C1430   1.356       .  S
F917       C1431   1.358       .  S
C921        C922   1.405       .  A
C921        C926   1.397       .  A
C921        F939   1.358       .  S
C922        C927   1.479       .  S
C922        C923   1.404       .  A
C923        C924   1.400       .  A
C923        F928   1.358       .  S
C924        C925   1.411       .  A
C924       F1460   1.355       .  S
C925        C926   1.409       .  A
C926        F929   1.358       .  S
C927        C930   1.405   1_565  A
C927        C934   1.405   1_565  A
C930        C931   1.400       .  A
C930        F935   1.357       .  S
C931        C932   1.408       .  A
C931        F937   1.357       .  S
C932        C933   1.410       .  A
C933        C934   1.394       .  A
C933        F936   1.359       .  S
C934        F938   1.358   1_545  S
C941        C942   1.406       .  A
C941        C946   1.402       .  A
C942        C947   1.490       .  S
C942        C943   1.408       .  A
C943        C944   1.398       .  A
C943        F948   1.357       .  S
C944        C945   1.400       .  A
C944        F960   1.353       .  S
C945        C946   1.403       .  A
C947        C950   1.404       .  A
C947        C954   1.409       .  A
F949       C1466   1.358       .  S
C950        C951   1.394       .  A
C950        F955   1.354       .  S
C951        C952   1.405       .  A
C951        F957   1.358       .  S
C952        C953   1.409       .  A
C953        C954   1.406       .  A
C953        F956   1.357       .  S
C954        F958   1.357       .  S
F959       C1461   1.355       .  S
C961        C962   1.405       .  A
C961        C966   1.392       .  A
C961        F979   1.358       .  S
C962        C967   1.480       .  S
C962        C963   1.409       .  A
C963        C964   1.404       .  A
C963        F968   1.358       .  S
C964        C965   1.404       .  A
C964        F980   1.358       .  S
C965        C966   1.402       .  A
C966        F969   1.358       .  S
C967        C970   1.405       .  A
C967        C974   1.404       .  A
C970        C971   1.398       .  A
C970        F975   1.358       .  S
C971        C972   1.408       .  A
C971        F977   1.354       .  S
C972        C973   1.410       .  A
C973        C974   1.397       .  A
C974        F978   1.358       .  S
F976       C1493   1.358       .  S
C981       C1502   1.404       .  A
C981       C1506   1.396       .  A
C981        F999   1.358       .  S
C982        C987   1.482       .  S
C982        C983   1.404       .  A
C983        C984   1.400       .  A
C983        F988   1.358       .  S
C984        C985   1.410       .  A
C984       F1000   1.358       .  S
C985        C986   1.408       .  A
C987        C990   1.402       .  A
C987        C994   1.405       .  A
F989       C1506   1.357       .  S
C990        C991   1.401   1_565  A
C990        F995   1.355       .  S
C991        C992   1.410       .  A
C991        F997   1.354       .  S
C992        C993   1.412       .  A
C993        C994   1.398   1_545  A
F996       C1513   1.358       .  S
F998       C1514   1.358       .  S
C1001      C1002   1.401       .  A
C1001      C1006   1.390       .  A
C1001      F1019   1.357       .  S
C1002      C1007   1.478       .  S
C1002      C1003   1.406       .  A
C1003      C1004   1.406       .  A
C1003      F1008   1.357       .  S
C1004      C1005   1.409       .  A
C1004      F1020   1.356       .  S
C1005      C1006   1.408       .  A
C1006      F1009   1.356       .  S
C1007      C1010   1.404       .  A
C1007      C1014   1.400       .  A
C1010      C1011   1.404       .  A
C1010      F1015   1.358       .  S
C1011      C1012   1.412       .  A
C1011      F1017   1.351       .  S
C1012      C1013   1.413       .  A
C1013      C1014   1.393       .  A
C1013      F1016   1.359       .  S
C1014      F1018   1.359       .  S
C1021      C1022   1.406       .  A
C1021      C1026   1.406       .  A
C1021      F1039   1.356       .  S
C1022      C1027   1.476       .  S
C1022      C1023   1.401       .  A
C1023      C1024   1.390       .  A
C1023      F1548   1.358       .  S
C1024      C1025   1.406       .  A
C1024      F1560   1.358       .  S
C1025      C1026   1.408       .  A
C1026      F1029   1.358       .  S
C1027      C1030   1.403       .  A
C1027      C1034   1.401       .  A
C1030      C1031   1.404       .  A
C1030      F1035   1.358       .  S
C1031      C1032   1.413       .  A
C1031      F1037   1.357       .  S
C1032      C1033   1.410       .  A
C1033      C1034   1.394       .  A
C1033      F1036   1.358       .  S
C1034      F1038   1.358       .  S
O1041      C1044   1.265       .  A
O1041     Cd1046   2.471       .  S
C1042      O1571   1.260       .  A
C1042      O1047   1.268       .  A
C1042      C1545   1.469       .  S
O1043      C1049   1.273       .  A
C1044      O1052   1.266       .  A
C1044      C1525   1.485       .  S
C1045      O1570   1.273       .  A
C1045      O1048   1.262       .  A
C1045      C1485   1.493       .  S
Cd1046     O1563   2.442       .  S
Cd1046     O1053   2.497       .  S
Cd1046     O1052   2.472       .  S
Cd1046     O1571   2.416       .  S
Cd1046     O1047   2.511       .  S
Cd1046     O1570   2.534       .  S
Cd1046     O1048   2.421       .  S
C1049      C1505   1.475       .  S
O1053      C1569   1.267       .  A
O1054      C1057   1.268       .  A
O1054     Cd1059   2.470       .  S
C1055      O1064   1.261       .  A
C1055      O1060   1.264       .  A
C1055      C1472   1.477       .  S
C1057      O1065   1.269       .  A
C1057      C1552   1.487       .  S
C1058      O1583   1.267       .  A
C1058      O1061   1.265       .  A
C1058      C1945   1.482       .  S
Cd1059     O1576   2.490       .  S
Cd1059     O1066   2.466       .  S
Cd1059     O1065   2.462       .  S
Cd1059     O1064   2.446       .  S
Cd1059     O1060   2.506       .  S
Cd1059     O1583   2.513       .  S
Cd1059     O1061   2.429       .  S
C1062      O1576   1.261       .  A
C1062      O1066   1.261       .  A
C1062      C1445   1.483       .  S
C1067      C1532   1.505       .  S
C1067      C1068   1.417       .  A
C1067      C1072   1.405   1_455  A
C1068      C1385   1.485   1_565  S
C1068      C1069   1.401   1_465  A
C1069      C1070   1.411   1_545  A
C1069      H1074   1.080       .  S
C1070      C1412   1.498   1_565  S
C1070      C1071   1.430       .  A
C1071      C1465   1.505       .  S
C1071      C1072   1.414       .  A
C1072      H1073   1.079       .  S
O1075      C1078   1.270       .  A
O1075     Cd1080   2.508       .  S
C1076      O1085   1.263       .  A
C1076      O1081   1.270       .  A
C1076      C1392   1.480       .  S
O1077      C1083   1.268       .  A
C1078      O1086   1.264       .  A
C1078      C1372   1.482       .  S
C1079      O1604   1.273       .  A
C1079      O1082   1.265       .  A
C1079      C1352   1.481       .  S
Cd1080     O1597   2.488       .  S
Cd1080     O1087   2.433       .  S
Cd1080     O1086   2.430       .  S
Cd1080     O1085   2.446       .  S
Cd1080     O1081   2.510       .  S
Cd1080     O1604   2.501       .  S
Cd1080     O1082   2.400       .  S
C1083      C1512   1.484       .  S
O1087      C1603   1.267       .  A
O1088      C1091   1.269       .  A
O1088     Cd1093   2.501       .  S
C1089      O1098   1.264       .  A
C1089      O1094   1.264       .  A
C1089      C1325   1.491       .  S
O1090      C1096   1.268       .  A
O1090     Cd1613   2.482       .  S
C1091      O1099   1.262       .  A
C1091      C1452   1.485       .  S
C1092      O1095   1.266       .  A
C1092      C1365   1.482       .  S
Cd1093     O1100   2.487       .  S
Cd1093     O1099   2.418       .  S
Cd1093     O1098   2.502       .  S
Cd1093     O1094   2.498       .  S
Cd1093     O1095   2.442       .  S
C1096      O1620   1.265       .  A
C1096      C1405   1.484       .  S
O1097      C1612   1.270       .  A
O1097     Cd1613   2.522       .  S
O1101      C1104   1.263       .  A
O1101     Cd1626   2.444       .  S
C1102      O1631   1.263       .  A
C1102      O1107   1.269       .  A
C1102      C1305   1.488       .  S
O1103      C1109   1.264       .  A
O1103     Cd1106   2.457       .  S
C1104      O1632   1.266       .  A
C1104      C1285   1.487       .  S
C1105      O1110   1.266       .  A
C1105      C1492   1.486       .  S
Cd1106     O1113   2.445       .  S
Cd1106     O1112   2.487       .  S
Cd1106     O1111   2.428       .  S
Cd1106     O1110   2.495       .  S
O1107     Cd1626   2.527       .  S
O1108      C1625   1.263       .  A
O1108     Cd1626   2.442       .  S
C1109      O1113   1.264       .  A
C1109      C1272   1.480       .  S
O1114      C1117   1.275       .  A
O1114     Cd1119   2.485       .  S
C1115      O1124   1.264       .  A
C1115      O1120   1.272       .  A
C1115      C1252   1.490       .  S
O1116      C1122   1.270       .  A
O1116     Cd1119   2.495       .  S
C1117      O1125   1.268       .  A
C1117      C1312   1.476       .  S
C1118      O1123   1.274       .  A
C1118      O1121   1.269       .  A
C1118      C1432   1.491       .  S
Cd1119     O1126   2.424       .  S
Cd1119     O1125   2.383       .  S
Cd1119     O1124   2.418       .  S
Cd1119     O1120   2.505       .  S
Cd1119     O1123   2.505       .  S
Cd1119     O1121   2.425       .  S
C1122      O1126   1.264       .  A
C1122      C1232   1.481       .  S
C1127      C1292   1.486       .  S
C1127      C1128   1.408       .  A
C1127      C1132   1.396       .  A
C1128      C1192   1.475       .  S
C1128      C1129   1.397       .  A
C1129      C1130   1.405       .  A
C1129      H1134   1.090       .  S
C1130      C1725   1.484       .  S
C1130      C1131   1.434       .  A
C1131      C1245   1.517       .  S
C1131      C1132   1.412       .  A
C1132      H1133   1.098       .  S
O1135      C1658   1.261       .  A
O1135     Cd1660   2.443       .  S
C1136      O1665   1.261       .  A
C1136      O1141   1.267       .  A
C1136      C1185   1.475       .  S
O1137      C1143   1.262       .  A
O1137     Cd1140   2.458       .  S
C1138      O1146   1.266       .  A
C1138      C1165   1.481       .  S
C1139      O1144   1.270       .  A
C1139      O1142   1.265       .  A
C1139      C1345   1.484       .  S
Cd1140     O1147   2.494       .  S
Cd1140     O1146   2.474       .  S
Cd1140     O1145   2.457       .  S
Cd1140     O1144   2.501       .  S
Cd1140     O1142   2.425       .  S
O1141     Cd1660   2.512       .  S
C1143      O1147   1.261       .  A
C1143      C1265   1.485       .  S
O1148      C1151   1.269       .  A
O1148     Cd1153   2.391       .  S
C1149      O1158   1.277       .  A
C1149      O1154   1.270       .  A
C1149      C1212   1.480       .  S
O1150      C1676   1.266       .  A
O1150     Cd1673   2.397       .  S
C1151      O1159   1.278       .  A
C1151      C1172   1.488       .  S
C1152      O1155   1.276       .  A
C1152      C1332   1.479       .  S
Cd1153     O1160   2.456       .  S
Cd1153     O1159   2.490       .  S
Cd1153     O1158   2.471       .  S
Cd1153     O1154   2.420       .  S
Cd1153     O1155   2.466       .  S
C1156      O1160   1.273       .  A
C1156      C1225   1.469       .  S
O1157      C1672   1.269       .  A
O1157     Cd1673   2.414       .  S
C1161      C1162   1.408       .  A
C1161      C1166   1.402       .  A
C1161      F1179   1.358       .  S
C1162      C1167   1.489   1_455  S
C1162      C1163   1.407       .  A
C1163      C1164   1.400       .  A
C1163      F1168   1.358       .  S
C1164      C1165   1.407       .  A
C1164      F1180   1.358       .  S
C1165      C1166   1.406       .  A
C1166      F1169   1.358       .  S
C1167      C1170   1.405       .  A
C1167      C1174   1.408       .  A
C1170      C1171   1.397       .  A
C1170      F1175   1.358       .  S
C1171      C1172   1.411       .  A
C1171      F1177   1.358       .  S
C1172      C1173   1.408       .  A
C1173      C1174   1.404       .  A
C1173      F1176   1.357       .  S
F1178      C1694   1.358       .  S
C1181      C1182   1.407       .  A
C1181      C1186   1.401       .  A
C1181      F1199   1.358       .  S
C1182      C1187   1.488       .  S
C1182      C1183   1.408       .  A
C1183      C1184   1.399       .  A
C1183      F1188   1.357       .  S
C1184      C1185   1.404       .  A
C1184      F1200   1.358       .  S
C1185      C1186   1.406       .  A
C1186      F1189   1.355       .  S
C1187      C1710   1.407       .  A
C1187      C1194   1.407       .  A
C1190      C1191   1.400       .  A
C1190      F1195   1.358       .  S
C1191      F1197   1.348       .  S
C1192      C1711   1.398       .  A
C1192      C1193   1.401       .  A
C1193      C1194   1.400       .  A
C1193      F1196   1.356       .  S
C1194      F1198   1.352       .  S
C1201      C1202   1.409       .  A
C1201      C1206   1.405       .  A
C1201      F1219   1.357       .  S
C1202      C1207   1.486       .  S
C1203      C1722   1.401       .  A
C1203      C1204   1.399       .  A
C1203      F1208   1.353       .  S
C1204      C1725   1.408       .  A
C1204      F1220   1.357       .  S
C1205      C1206   1.406       .  A
C1206      F1209   1.356       .  S
C1207      C1210   1.406       .  A
C1207      C1214   1.406       .  A
C1210      C1211   1.400       .  A
C1210      F1215   1.357       .  S
C1211      C1212   1.406       .  A
C1211      F1217   1.358       .  S
C1212      C1213   1.406       .  A
C1213      C1214   1.402       .  A
C1213      F1216   1.356       .  S
F1218      C1734   1.358       .  S
C1221      C1222   1.406       .  A
C1221      C1226   1.404       .  A
C1221      F1239   1.357       .  S
C1222      C1227   1.475       .  S
C1222      C1223   1.404       .  A
C1223      C1224   1.392       .  A
C1223      F1228   1.359       .  S
C1224      C1225   1.404       .  A
C1224      F1240   1.359       .  S
C1225      C1226   1.405       .  A
C1226      F1229   1.357       .  S
C1227      C1230   1.403       .  A
C1227      C1234   1.404       .  A
C1230      C1231   1.398       .  A
C1230      F1235   1.358       .  S
C1231      C1232   1.409       .  A
C1231      F1237   1.358       .  S
C1232      C1233   1.408       .  A
C1233      C1234   1.400       .  A
C1233      F1756   1.355       .  S
C1234      F1238   1.357       .  S
C1241      C1242   1.412       .  A
C1241      C1246   1.405       .  A
C1241      F1259   1.356       .  S
C1242      C1247   1.513       .  S
C1243      C1762   1.407       .  A
C1243      C1244   1.395       .  A
C1243      F1248   1.357       .  S
C1244      C1245   1.419       .  A
C1244      F1260   1.358       .  S
C1245      C1766   1.414       .  A
C1246      F1249   1.350       .  S
C1247      C1250   1.417       .  A
C1247      C1254   1.414       .  A
C1250      C1251   1.405       .  A
C1251      C1252   1.405       .  A
C1252      C1253   1.407       .  A
C1253      C1254   1.399       .  A
C1253      F1256   1.358       .  S
C1254      F1258   1.358       .  S
F1255      C1770   1.356       .  S
F1257      C1771   1.354       .  S
C1261      C1262   1.403       .  A
C1261      C1266   1.397       .  A
C1261      F1279   1.358       .  S
C1262      C1267   1.477       .  S
C1262      C1263   1.404       .  A
C1263      C1264   1.399       .  A
C1264      C1265   1.410       .  A
C1264      F1280   1.358       .  S
C1265      C1266   1.410       .  A
C1266      F1269   1.355       .  S
C1267      C1270   1.404       .  A
C1267      C1274   1.404       .  A
F1268      C1783   1.358       .  S
C1270      C1271   1.393       .  A
C1270      F1275   1.359       .  S
C1271      C1272   1.409       .  A
C1271      F1277   1.358       .  S
C1272      C1273   1.410       .  A
C1273      C1274   1.401       .  A
C1273      F1276   1.357       .  S
C1274      F1278   1.357       .  S
C1281      C1282   1.407       .  A
C1281      C1286   1.405       .  A
C1281      F1299   1.358       .  S
C1282      C1287   1.483       .  S
C1282      C1283   1.401       .  A
C1283      C1284   1.396       .  A
C1283      F1288   1.358       .  S
C1284      C1285   1.410       .  A
C1284      F1300   1.357       .  S
C1285      C1286   1.410       .  A
C1286      F1289   1.358       .  S
C1287      C1810   1.405       .  A
C1287      C1294   1.407       .  A
C1290      C1291   1.396       .  A
C1290      F1295   1.358       .  S
C1291      F1297   1.358       .  S
C1292      C1811   1.407       .  A
C1292      C1293   1.399       .  A
C1293      C1294   1.401       .  A
C1293      F1296   1.348       .  S
C1294      F1298   1.358       .  S
C1301      C1822   1.408       .  A
C1301      C1306   1.409       .  A
C1301      F1319   1.358       .  S
C1302      C1307   1.476   1_455  S
C1302      C1303   1.403       .  A
C1303      C1304   1.395       .  A
C1303      F1308   1.357       .  S
C1304      F1320   1.358       .  S
C1305      C1824   1.409       .  A
C1305      C1306   1.411       .  A
C1306      F1309   1.358       .  S
C1307      C1314   1.402       .  A
C1310      C1827   1.408       .  A
C1310      C1311   1.404       .  A
C1310      F1315   1.357       .  S
C1311      C1832   1.407       .  A
C1311      F1317   1.358       .  S
C1312      C1313   1.407       .  A
C1313      C1314   1.395       .  A
C1313      F1316   1.358       .  S
C1314      F1318   1.358       .  S
C1321      C1322   1.403       .  A
C1321      C1326   1.402       .  A
C1321      F1339   1.357       .  S
C1322      C1327   1.484       .  S
C1322      C1323   1.404       .  A
C1323      C1324   1.404       .  A
C1323      F1328   1.357       .  S
C1324      C1325   1.411       .  A
C1324      F1340   1.358       .  S
C1325      C1326   1.411       .  A
C1326      F1329   1.357       .  S
C1327      C1330   1.404       .  A
C1327      C1854   1.405       .  A
C1330      C1331   1.399       .  A
C1330      F1335   1.358       .  S
C1331      C1852   1.408       .  A
C1331      F1337   1.358       .  S
C1332      C1333   1.408       .  A
C1333      C1334   1.402       .  A
C1333      F1336   1.358       .  S
C1334      F1338   1.354       .  S
C1341      C1342   1.405       .  A
C1341      C1346   1.405       .  A
C1341      F1359   1.358       .  S
C1342      C1347   1.477       .  S
C1342      C1343   1.401       .  A
C1343      C1344   1.395       .  A
C1343      F1348   1.358       .  S
C1344      C1345   1.409       .  A
C1344      F1360   1.358       .  S
C1345      C1346   1.410       .  A
C1346      F1349   1.357       .  S
C1347      C1350   1.402       .  A
C1347      C1354   1.405       .  A
C1350      C1351   1.395       .  A
C1350      F1355   1.358       .  S
C1351      C1352   1.409       .  A
C1351      F1357   1.359       .  S
C1352      C1353   1.409       .  A
C1353      C1354   1.405       .  A
C1353      F1876   1.358       .  S
C1354      F1878   1.357       .  S
C1361      C1362   1.405       .  A
C1361      C1366   1.395       .  A
C1361      F1379   1.358       .  S
C1362      C1367   1.485       .  S
C1362      C1363   1.408       .  A
C1364      C1883   1.406       .  A
C1364      C1885   1.408       .  A
C1364      F1380   1.357       .  S
C1365      C1366   1.406       .  A
C1366      F1369   1.358       .  S
C1367      C1370   1.404       .  A
C1367      C1374   1.408       .  A
F1368      C1883   1.358       .  S
C1370      C1371   1.397       .  A
C1370      F1375   1.358       .  S
C1371      C1372   1.408       .  A
C1371      F1377   1.358       .  S
C1372      C1373   1.408       .  A
C1373      C1374   1.403       .  A
C1373      F1376   1.358       .  S
C1374      F1378   1.356       .  S
C1381      C1382   1.406       .  A
C1381      C1386   1.394       .  A
C1381      F1399   1.353       .  S
C1382      C1387   1.495       .  S
C1382      C1383   1.410       .  A
C1384      C1903   1.401       .  A
C1384      C1905   1.419       .  A
C1384      F1400   1.359       .  S
C1385      C1386   1.397       .  A
C1386      F1389   1.355   1_545  S
C1387      C1390   1.408       .  A
C1387      C1394   1.412       .  A
F1388      C1903   1.358       .  S
C1390      C1391   1.394       .  A
C1390      F1395   1.358       .  S
C1391      C1392   1.404       .  A
C1391      F1397   1.356       .  S
C1392      C1393   1.405       .  A
C1393      C1394   1.407       .  A
C1393      F1396   1.358       .  S
C1394      F1398   1.357       .  S
C1401      C1402   1.402       .  A
C1401      F1419   1.359       .  S
C1402      C1407   1.480       .  S
C1403      C1922   1.408       .  A
C1403      C1404   1.408       .  A
C1403      F1408   1.358       .  S
C1404      C1405   1.407       .  A
C1404      F1420   1.357       .  S
C1405      C1406   1.407       .  A
C1406      C1921   1.399       .  A
C1406      F1929   1.357       .  S
C1407      C1414   1.402       .  A
C1410      C1927   1.407       .  A
C1410      C1411   1.402       .  A
C1410      F1415   1.357       .  S
C1411      C1932   1.402       .  A
C1411      F1417   1.351   1_545  S
C1412      C1413   1.413       .  A
C1413      C1414   1.399       .  A
C1413      F1416   1.358       .  S
C1414      F1418   1.358       .  S
C1421      C1942   1.401       .  A
C1421      C1426   1.394       .  A
C1421      F1439   1.357       .  S
C1422      C1427   1.492       .  S
C1422      C1423   1.409       .  A
C1423      C1424   1.410       .  A
C1423      F1428   1.356       .  S
C1424      C1425   1.410       .  A
C1424      F1440   1.357       .  S
C1426      C1945   1.407       .  A
C1426      F1429   1.358       .  S
C1427      C1430   1.405       .  A
C1427      C1434   1.407       .  A
C1430      C1431   1.396       .  A
C1431      C1432   1.409       .  A
C1432      C1433   1.412       .  A
C1433      C1434   1.409       .  A
C1433      F1436   1.357       .  S
C1434      F1438   1.356       .  S
F1435      C1950   1.357       .  S
F1437      C1951   1.358       .  S
C1441      C1442   1.406       .  A
C1441      C1446   1.397       .  A
C1441      F1459   1.358       .  S
C1442      C1447   1.483       .  S
C1442      C1443   1.405       .  A
C1443      C1444   1.399       .  A
C1443      F1448   1.358       .  S
C1444      C1445   1.410       .  A
C1444      F1980   1.356       .  S
C1445      C1446   1.408       .  A
C1446      F1449   1.358       .  S
C1447      C1450   1.406   1_565  A
C1447      C1454   1.404   1_565  A
C1450      C1451   1.402       .  A
C1450      F1455   1.357   1_545  S
C1451      C1452   1.408       .  A
C1451      F1457   1.356       .  S
C1452      C1453   1.411       .  A
C1453      C1454   1.395       .  A
C1453      F1456   1.358       .  S
C1454      F1458   1.359   1_545  S
C1461      C1462   1.398       .  A
C1461      C1466   1.398       .  A
C1462      C1467   1.478       .  S
C1462      C1463   1.402       .  A
C1463      C1464   1.399       .  A
C1463      F1468   1.358       .  S
C1464      C1465   1.412       .  A
C1464      F1480   1.350       .  S
C1465      C1466   1.416       .  A
C1467      C1470   1.403       .  A
C1467      C1474   1.404       .  A
F1469      C1986   1.357       .  S
C1470      C1471   1.398       .  A
C1470      F1475   1.357       .  S
C1471      C1472   1.406       .  A
C1471      F1477   1.358       .  S
C1472      C1473   1.407       .  A
C1473      C1474   1.400       .  A
C1473      F1476   1.355       .  S
C1474      F1478   1.358       .  S
F1479      C1981   1.355       .  S
C1481      C1482   1.401       .  A
C1481      C1486   1.397       .  A
C1481      F1499   1.358       .  S
C1482      C1487   1.482       .  S
C1482      C1483   1.404       .  A
C1483      C1484   1.407       .  A
C1483      F1488   1.357       .  S
C1484      C1485   1.411       .  A
C1484      F1500   1.357       .  S
C1485      C1486   1.414       .  A
C1486      F1489   1.358       .  S
C1487      C1490   1.404       .  A
C1487      C1494   1.402       .  A
C1490      C1491   1.404       .  A
C1490      F1495   1.357       .  S
C1491      C1492   1.411       .  A
C1491      F1497   1.357       .  S
C1492      C1493   1.410       .  A
C1493      C1494   1.398       .  A
C1494      F1498   1.356       .  S
F1496      C2013   1.358       .  S
C1501      C2022   1.405       .  A
C1501      C2026   1.398       .  A
C1501      F1519   1.358       .  S
C1502      C1507   1.479       .  S
C1502      C1503   1.405       .  A
C1503      C1504   1.403       .  A
C1503      F1508   1.358       .  S
C1504      C1505   1.406       .  A
C1504      F1520   1.355       .  S
C1505      C1506   1.404       .  A
C1507      C1510   1.403       .  A
C1507      C1514   1.404       .  A
F1509      C2026   1.358       .  S
C1510      C1511   1.400   1_565  A
C1510      F1515   1.358       .  S
C1511      C1512   1.405       .  A
C1511      F1517   1.349       .  S
C1512      C1513   1.408       .  A
C1513      C1514   1.400   1_545  A
F1516      C2033   1.358       .  S
F1518      C2034   1.358       .  S
C1521      C1522   1.407       .  A
C1521      C1526   1.402       .  A
C1521      F1539   1.358       .  S
C1522      C1527   1.488       .  S
C1522      C1523   1.406       .  A
C1523      C1524   1.400       .  A
C1523      F1528   1.358       .  S
C1524      C1525   1.408       .  A
C1524      F1540   1.357       .  S
C1525      C1526   1.411       .  A
C1526      F1529   1.358       .  S
C1527      C1530   1.404       .  A
C1527      C1534   1.407       .  A
C1530      C1531   1.400       .  A
C1530      F1535   1.358       .  S
C1531      C1532   1.410       .  A
C1531      F1537   1.351       .  S
C1532      C1533   1.411       .  A
C1533      C1534   1.401       .  A
C1533      F1536   1.357       .  S
C1534      F1538   1.358       .  S
C1541      C1542   1.408       .  A
C1541      C1546   1.402       .  A
C1541      F1559   1.357       .  S
C1542      C1547   1.485       .  S
C1542      C1543   1.407       .  A
C1543      C1544   1.398       .  A
C1543      F2068   1.358       .  S
C1544      C1545   1.403       .  A
C1544      F2080   1.358       .  S
C1545      C1546   1.404       .  A
C1546      F1549   1.358       .  S
C1547      C1550   1.404       .  A
C1547      C1554   1.405       .  A
C1550      C1551   1.401       .  A
C1550      F1555   1.358       .  S
C1551      C1552   1.411       .  A
C1551      F1557   1.355       .  S
C1552      C1553   1.408       .  A
C1553      C1554   1.400       .  A
C1553      F1556   1.358       .  S
C1554      F1558   1.356       .  S
O1561      C1564   1.272       .  A
O1561     Cd1566   2.472       .  S
C1562      O2091   1.265       .  A
C1562      O1567   1.272       .  A
C1562      C2065   1.473       .  S
O1563      C1569   1.262       .  A
C1564      O1572   1.266       .  A
C1564      C2045   1.478       .  S
C1565      O2090   1.272       .  A
C1565      O1568   1.265       .  A
C1565      C2005   1.476       .  S
Cd1566     O2083   2.452       .  S
Cd1566     O1573   2.402       .  S
Cd1566     O1572   2.392       .  S
Cd1566     O2091   2.417       .  S
Cd1566     O1567   2.492       .  S
Cd1566     O2090   2.490       .  S
Cd1566     O1568   2.393       .  S
C1569      C2025   1.485       .  S
O1573      C2089   1.265       .  A
O1574      C1577   1.269       .  A
O1574     Cd1579   2.471       .  S
C1575      O1584   1.264       .  A
C1575      O1580   1.266       .  A
C1575      C1992   1.484       .  S
C1577      O1585   1.266       .  A
C1577      C2072   1.476       .  S
C1578      O2103   1.270       .  A
C1578      O1581   1.265       .  A
C1578      C2465   1.479       .  S
Cd1579     O2096   2.473       .  S
Cd1579     O1586   2.444       .  S
Cd1579     O1585   2.431       .  S
Cd1579     O1584   2.467       .  S
Cd1579     O1580   2.507       .  S
Cd1579     O2103   2.494       .  S
Cd1579     O1581   2.433       .  S
C1582      O2096   1.264       .  A
C1582      O1586   1.263       .  A
C1582      C1965   1.482       .  S
C1587      C2052   1.491       .  S
C1587      C1588   1.430       .  A
C1587      C1592   1.413   1_455  A
C1588      C1905   1.507   1_565  S
C1588      C1589   1.407   1_465  A
C1589      C1590   1.401   1_545  A
C1589      H1594   1.085       .  S
C1590      C1932   1.492   1_565  S
C1590      C1591   1.417       .  A
C1591      C1985   1.493       .  S
C1591      C1592   1.402       .  A
C1592      H1593   1.083       .  S
O1595      C1598   1.271       .  A
O1595     Cd1600   2.481       .  S
C1596      O1605   1.263       .  A
C1596      O1601   1.268       .  A
C1596      C1912   1.477       .  S
O1597      C1603   1.271       .  A
C1598      O1606   1.266       .  A
C1598      C1892   1.481       .  S
C1599      O2124   1.271       .  A
C1599      O1602   1.265       .  A
C1599      C1872   1.480       .  S
Cd1600     O2117   2.480       .  S
Cd1600     O1607   2.476       .  S
Cd1600     O1606   2.421       .  S
Cd1600     O1605   2.438       .  S
Cd1600     O1601   2.499       .  S
Cd1600     O2124   2.514       .  S
Cd1600     O1602   2.404       .  S
C1603      C2032   1.487       .  S
O1607      C2123   1.261       .  A
O1608      C1611   1.269       .  A
O1608     Cd1613   2.498       .  S
C1609      O1618   1.266       .  A
C1609      O1614   1.270       .  A
C1609      C1845   1.482       .  S
O1610      C1616   1.261       .  A
O1610     Cd2133   2.431       .  S
C1611      O1619   1.260       .  A
C1611      C1972   1.471       .  S
C1612      O1615   1.262       .  A
C1612      C1885   1.483       .  S
Cd1613     O1620   2.495       .  S
Cd1613     O1619   2.396       .  S
Cd1613     O1618   2.445       .  S
Cd1613     O1614   2.489       .  S
Cd1613     O1615   2.437       .  S
C1616      O2140   1.266       .  A
C1616      C1925   1.476       .  S
O1617      C2132   1.268       .  A
O1617     Cd2133   2.497       .  S
O1621      C1624   1.262       .  A
O1621     Cd2146   2.422       .  S
C1622      O2151   1.263       .  A
C1622      O1627   1.268       .  A
C1622      C1825   1.473       .  S
O1623      C1629   1.265       .  A
O1623     Cd1626   2.480       .  S
C1624      O2152   1.265       .  A
C1624      C1805   1.475       .  S
C1625      O1630   1.264       .  A
C1625      C2012   1.479       .  S
Cd1626     O1633   2.433       .  S
Cd1626     O1632   2.501       .  S
Cd1626     O1631   2.436       .  S
Cd1626     O1630   2.492       .  S
O1627     Cd2146   2.487       .  S
O1628      C2145   1.263       .  A
O1628     Cd2146   2.465       .  S
C1629      O1633   1.263       .  A
C1629      C1792   1.481       .  S
O1634      C1637   1.272       .  A
O1634     Cd1639   2.500       .  S
C1635      O1644   1.265       .  A
C1635      O1640   1.271       .  A
C1635      C1772   1.485       .  S
O1636      C1642   1.272       .  A
O1636     Cd1639   2.501       .  S
C1637      O1645   1.267       .  A
C1637      C1832   1.482       .  S
C1638      O1643   1.273       .  A
C1638      O1641   1.269       .  A
C1638      C1952   1.478       .  S
Cd1639     O1646   2.384       .  S
Cd1639     O1645   2.431       .  S
Cd1639     O1644   2.427       .  S
Cd1639     O1640   2.497       .  S
Cd1639     O1643   2.467       .  S
Cd1639     O1641   2.410       .  S
C1642      O1646   1.264       .  A
C1642      C1752   1.480       .  S
C1647      C1812   1.495       .  S
C1647      C1648   1.425       .  A
C1647      C1652   1.417       .  A
C1648      C1712   1.508       .  S
C1648      C1649   1.404       .  A
C1649      C1650   1.405       .  A
C1649      H1654   1.075       .  S
C1650      C2245   1.485       .  S
C1650      C1651   1.428       .  A
C1651      C1765   1.528       .  S
C1651      C1652   1.417       .  A
C1652      H1653   1.058       .  S
O1655      C2178   1.263       .  A
O1655     Cd2180   2.448       .  S
C1656      O2185   1.261       .  A
C1656      O1661   1.264       .  A
C1656      C1705   1.475       .  S
O1657      C1663   1.261       .  A
O1657     Cd1660   2.446       .  S
C1658      O1666   1.267       .  A
C1658      C1685   1.486       .  S
C1659      O1664   1.269       .  A
C1659      O1662   1.265       .  A
C1659      C1865   1.482       .  S
Cd1660     O1667   2.470       .  S
Cd1660     O1666   2.503       .  S
Cd1660     O1665   2.446       .  S
Cd1660     O1664   2.499       .  S
Cd1660     O1662   2.445       .  S
O1661     Cd2180   2.483       .  S
C1663      O1667   1.260       .  A
C1663      C1785   1.475       .  S
O1668      C1671   1.268       .  A
O1668     Cd1673   2.380       .  S
C1669      O1678   1.273       .  A
C1669      O1674   1.269       .  A
C1669      C1732   1.478       .  S
O1670      C2196   1.264       .  A
O1670     Cd2193   2.392       .  S
C1671      O1679   1.276       .  A
C1671      C1692   1.480       .  S
C1672      O1675   1.275       .  A
C1672      C1852   1.480       .  S
Cd1673     O1680   2.477       .  S
Cd1673     O1679   2.484       .  S
Cd1673     O1678   2.451       .  S
Cd1673     O1674   2.411       .  S
Cd1673     O1675   2.469       .  S
C1676      O1680   1.272       .  A
C1676      C1745   1.471       .  S
O1677      C2192   1.269       .  A
O1677     Cd2193   2.420       .  S
C1681      C1682   1.408       .  A
C1681      C1686   1.402       .  A
C1681      F1699   1.358       .  S
C1682      C1687   1.488   1_455  S
C1682      C1683   1.406       .  A
C1683      C1684   1.398       .  A
C1683      F1688   1.358       .  S
C1684      C1685   1.411       .  A
C1684      F1700   1.358       .  S
C1685      C1686   1.408       .  A
C1686      F1689   1.357       .  S
C1687      C1690   1.406       .  A
C1687      C1694   1.410       .  A
C1690      C1691   1.395       .  A
C1690      F1695   1.358       .  S
C1691      C1692   1.408       .  A
C1691      F1697   1.359       .  S
C1692      C1693   1.406       .  A
C1693      C1694   1.403       .  A
C1693      F1696   1.358       .  S
F1698      C2214   1.358       .  S
C1701      C1702   1.404       .  A
C1701      C1706   1.397       .  A
C1701      F1719   1.358       .  S
C1702      C1707   1.484       .  S
C1702      C1703   1.407       .  A
C1703      C1704   1.403       .  A
C1703      F1708   1.358       .  S
C1704      C1705   1.406       .  A
C1704      F1720   1.358       .  S
C1705      C1706   1.404       .  A
C1706      F1709   1.355       .  S
C1707      C2230   1.404       .  A
C1707      C1714   1.400       .  A
C1710      C1711   1.398       .  A
C1710      F1715   1.355       .  S
C1711      F1717   1.356       .  S
C1712      C2231   1.408       .  A
C1712      C1713   1.417       .  A
C1713      C1714   1.402       .  A
C1713      F1716   1.358       .  S
C1714      F1718   1.357       .  S
C1721      C1722   1.406       .  A
C1721      C1726   1.401       .  A
C1721      F1739   1.357       .  S
C1722      C1727   1.479       .  S
C1723      C2242   1.403       .  A
C1723      C1724   1.395       .  A
C1723      F1728   1.355       .  S
C1724      C2245   1.408       .  A
C1724      F1740   1.359       .  S
C1725      C1726   1.399       .  A
C1726      F1729   1.350       .  S
C1727      C1730   1.402       .  A
C1727      C1734   1.404       .  A
C1730      C1731   1.398       .  A
C1730      F1735   1.355       .  S
C1731      C1732   1.407       .  A
C1731      F1737   1.358       .  S
C1732      C1733   1.408       .  A
C1733      C1734   1.401       .  A
C1733      F1736   1.355       .  S
F1738      C2254   1.358       .  S
C1741      C1742   1.406       .  A
C1741      C1746   1.405       .  A
C1741      F1759   1.357       .  S
C1742      C1747   1.474       .  S
C1742      C1743   1.402       .  A
C1743      C1744   1.393       .  A
C1743      F1748   1.358       .  S
C1744      C1745   1.405       .  A
C1744      F1760   1.359       .  S
C1745      C1746   1.406       .  A
C1746      F1749   1.357       .  S
C1747      C1750   1.401       .  A
C1747      C1754   1.404       .  A
C1750      C1751   1.393       .  A
C1750      F1755   1.358       .  S
C1751      C1752   1.409       .  A
C1751      F1757   1.359       .  S
C1752      C1753   1.409       .  A
C1753      C1754   1.404       .  A
C1753      F2276   1.355       .  S
C1754      F1758   1.358       .  S
C1761      C1762   1.412       .  A
C1761      C1766   1.402       .  A
C1761      F1779   1.357       .  S
C1762      C1767   1.504       .  S
C1763      C2282   1.413       .  A
C1763      C1764   1.404       .  A
C1763      F1768   1.357       .  S
C1764      C1765   1.418       .  A
C1764      F1780   1.357       .  S
C1765      C2286   1.415       .  A
C1766      F1769   1.351       .  S
C1767      C1770   1.412       .  A
C1767      C1774   1.413       .  A
C1770      C1771   1.400       .  A
C1771      C1772   1.404       .  A
C1772      C1773   1.405       .  A
C1773      C1774   1.399       .  A
C1773      F1776   1.358       .  S
C1774      F1778   1.357       .  S
F1775      C2290   1.355       .  S
F1777      C2291   1.357       .  S
C1781      C1782   1.402       .  A
C1781      C1786   1.397       .  A
C1781      F1799   1.358       .  S
C1782      C1787   1.472       .  S
C1782      C1783   1.404       .  A
C1783      C1784   1.395       .  A
C1784      C1785   1.407       .  A
C1784      F1800   1.358       .  S
C1785      C1786   1.408       .  A
C1786      F1789   1.356       .  S
C1787      C1790   1.402       .  A
C1787      C1794   1.402       .  A
F1788      C2303   1.358       .  S
C1790      C1791   1.393       .  A
C1790      F1795   1.359       .  S
C1791      C1792   1.410       .  A
C1791      F1797   1.358       .  S
C1792      C1793   1.410       .  A
C1793      C1794   1.401       .  A
C1793      F1796   1.356       .  S
C1794      F1798   1.358       .  S
C1801      C1802   1.407       .  A
C1801      C1806   1.403       .  A
C1801      F1819   1.358       .  S
C1802      C1807   1.479       .  S
C1802      C1803   1.402       .  A
C1803      C1804   1.394       .  A
C1803      F1808   1.358       .  S
C1804      C1805   1.407       .  A
C1804      F1820   1.358       .  S
C1805      C1806   1.406       .  A
C1806      F1809   1.358       .  S
C1807      C2330   1.401       .  A
C1807      C1814   1.405       .  A
C1810      C1811   1.401       .  A
C1810      F1815   1.357       .  S
C1811      F1817   1.357       .  S
C1812      C2331   1.411       .  A
C1812      C1813   1.410       .  A
C1813      C1814   1.403       .  A
C1813      F1816   1.351       .  S
C1814      F1818   1.358       .  S
C1821      C2342   1.405       .  A
C1821      C1826   1.403       .  A
C1821      F1839   1.357       .  S
C1822      C1827   1.488   1_455  S
C1822      C1823   1.404       .  A
C1823      C1824   1.396       .  A
C1823      F1828   1.358       .  S
C1824      F1840   1.358       .  S
C1825      C2344   1.406       .  A
C1825      C1826   1.407       .  A
C1826      F1829   1.358       .  S
C1827      C1834   1.405       .  A
C1830      C2347   1.405       .  A
C1830      C1831   1.403       .  A
C1830      F1835   1.357       .  S
C1831      C2352   1.408       .  A
C1831      F1837   1.358       .  S
C1832      C1833   1.407       .  A
C1833      C1834   1.401       .  A
C1833      F1836   1.358       .  S
C1834      F1838   1.358       .  S
C1841      C1842   1.404       .  A
C1841      C1846   1.404       .  A
C1841      F1859   1.357       .  S
C1842      C1847   1.482       .  S
C1842      C1843   1.403       .  A
C1843      C1844   1.399       .  A
C1843      F1848   1.355       .  S
C1844      C1845   1.408       .  A
C1844      F1860   1.358       .  S
C1845      C1846   1.409       .  A
C1846      F1849   1.357       .  S
C1847      C1850   1.403       .  A
C1847      C2374   1.405       .  A
C1850      C1851   1.397       .  A
C1850      F1855   1.358       .  S
C1851      C2372   1.410       .  A
C1851      F1857   1.358       .  S
C1852      C1853   1.407       .  A
C1853      C1854   1.403       .  A
C1853      F1856   1.358       .  S
C1854      F1858   1.354       .  S
C1861      C1862   1.407       .  A
C1861      C1866   1.402       .  A
C1861      F1879   1.357       .  S
C1862      C1867   1.484       .  S
C1862      C1863   1.405       .  A
C1863      C1864   1.399       .  A
C1863      F1868   1.358       .  S
C1864      C1865   1.408       .  A
C1864      F1880   1.358       .  S
C1865      C1866   1.406       .  A
C1866      F1869   1.356       .  S
C1867      C1870   1.404       .  A
C1867      C1874   1.409       .  A
C1870      C1871   1.394       .  A
C1870      F1875   1.358       .  S
C1871      C1872   1.407       .  A
C1871      F1877   1.358       .  S
C1872      C1873   1.408       .  A
C1873      C1874   1.406       .  A
C1873      F2396   1.358       .  S
C1874      F2398   1.357       .  S
C1881      C1882   1.404       .  A
C1881      C1886   1.397       .  A
C1881      F1899   1.358       .  S
C1882      C1887   1.483       .  S
C1882      C1883   1.406       .  A
C1884      C2403   1.404       .  A
C1884      C2405   1.408       .  A
C1884      F1900   1.358       .  S
C1885      C1886   1.408       .  A
C1886      F1889   1.358       .  S
C1887      C1890   1.404       .  A
C1887      C1894   1.406       .  A
F1888      C2403   1.357       .  S
C1890      C1891   1.398       .  A
C1890      F1895   1.358       .  S
C1891      C1892   1.408       .  A
C1891      F1897   1.358       .  S
C1892      C1893   1.409       .  A
C1893      C1894   1.403       .  A
C1893      F1896   1.358       .  S
C1894      F1898   1.358       .  S
C1901      C1902   1.404       .  A
C1901      C1906   1.400   1_545  A
C1901      F1919   1.358       .  S
C1902      C1907   1.483       .  S
C1902      C1903   1.399       .  A
C1904      C2423   1.403       .  A
C1904      C2425   1.408       .  A
C1904      F1920   1.358       .  S
C1905      C1906   1.411   1_545  A
C1906      F1909   1.350       .  S
C1907      C1910   1.403       .  A
C1907      C1914   1.406       .  A
F1908      C2423   1.354       .  S
C1910      C1911   1.398       .  A
C1910      F1915   1.357       .  S
C1911      C1912   1.405       .  A
C1911      F1917   1.353       .  S
C1912      C1913   1.407       .  A
C1913      C1914   1.401       .  A
C1913      F1916   1.358       .  S
C1914      F1918   1.357       .  S
C1921      C1922   1.404       .  A
C1921      F1939   1.358       .  S
C1922      C1927   1.488       .  S
C1923      C2442   1.406       .  A
C1923      C1924   1.403       .  A
C1923      F1928   1.358       .  S
C1924      C1925   1.406       .  A
C1924      F1940   1.357       .  S
C1925      C1926   1.409       .  A
C1926      C2441   1.394       .  A
C1926      F2449   1.358       .  S
C1927      C1934   1.405       .  A
C1930      C2447   1.402       .  A
C1930      C1931   1.400       .  A
C1930      F1935   1.356       .  S
C1931      C2452   1.410       .  A
C1931      F1937   1.351   1_545  S
C1932      C1933   1.408       .  A
C1933      C1934   1.402       .  A
C1933      F1936   1.357       .  S
C1934      F1938   1.357       .  S
C1941      C2462   1.404       .  A
C1941      C1946   1.398       .  A
C1941      F1959   1.357       .  S
C1942      C1947   1.477       .  S
C1942      C1943   1.404       .  A
C1943      C1944   1.406       .  A
C1943      F1948   1.358       .  S
C1944      C1945   1.412       .  A
C1944      F1960   1.358       .  S
C1946      C2465   1.407       .  A
C1946      F1949   1.358       .  S
C1947      C1950   1.403       .  A
C1947      C1954   1.403       .  A
C1950      C1951   1.396       .  A
C1951      C1952   1.407       .  A
C1952      C1953   1.408       .  A
C1953      C1954   1.402       .  A
C1953      F1956   1.358       .  S
C1954      F1958   1.355       .  S
F1955      C2470   1.358       .  S
F1957      C2471   1.358       .  S
C1961      C1962   1.403       .  A
C1961      C1966   1.396       .  A
C1961      F1979   1.356       .  S
C1962      C1967   1.475       .  S
C1962      C1963   1.402       .  A
C1963      C1964   1.399       .  A
C1963      F1968   1.358       .  S
C1964      C1965   1.410       .  A
C1964      F2500   1.354       .  S
C1965      C1966   1.407       .  A
C1966      F1969   1.358       .  S
C1967      C1970   1.405   1_565  A
C1967      C1974   1.403       .  A
C1970      C1971   1.402       .  A
C1970      F1975   1.357       .  S
C1971      C1972   1.407       .  A
C1971      F1977   1.358       .  S
C1972      C1973   1.406       .  A
C1973      C1974   1.392   1_545  A
C1973      F1976   1.357       .  S
C1974      F1978   1.359       .  S
C1981      C1982   1.408       .  A
C1981      C1986   1.408       .  A
C1982      C1987   1.495       .  S
C1982      C1983   1.408       .  A
C1983      C1984   1.399       .  A
C1983      F1988   1.357       .  S
C1984      C1985   1.401       .  A
C1984      F2000   1.355       .  S
C1985      C1986   1.409       .  A
C1987      C1990   1.406       .  A
C1987      C1994   1.407       .  A
F1989      C2506   1.358       .  S
C1990      C1991   1.399       .  A
C1990      F1995   1.354       .  S
C1991      C1992   1.405       .  A
C1991      F1997   1.358       .  S
C1992      C1993   1.410       .  A
C1993      C1994   1.406       .  A
C1993      F1996   1.356       .  S
C1994      F1998   1.356       .  S
F1999      C2501   1.354       .  S
C2001      C2002   1.402       .  A
C2001      C2006   1.393       .  A
C2001      F2019   1.359       .  S
C2002      C2007   1.474       .  S
C2002      C2003   1.404       .  A
C2003      C2004   1.403       .  A
C2003      F2008   1.356       .  S
C2004      C2005   1.408       .  A
C2004      F2020   1.358       .  S
C2005      C2006   1.407       .  A
C2006      F2009   1.358       .  S
C2007      C2010   1.403       .  A
C2007      C2014   1.402       .  A
C2010      C2011   1.401       .  A
C2010      F2015   1.358       .  S
C2011      C2012   1.409       .  A
C2011      F2017   1.357       .  S
C2012      C2013   1.408       .  A
C2013      C2014   1.396       .  A
C2014      F2018   1.358       .  S
F2016      C2533   1.358       .  S
C2021      C2542   1.406       .  A
C2021      C2546   1.394       .  A
C2021      F2039   1.358       .  S
C2022      C2027   1.483       .  S
C2022      C2023   1.404       .  A
C2023      C2024   1.401       .  A
C2023      F2028   1.357       .  S
C2024      C2025   1.410       .  A
C2024      F2040   1.358       .  S
C2025      C2026   1.410       .  A
C2027      C2030   1.404   1_565  A
C2027      C2034   1.406       .  A
F2029      C2546   1.357       .  S
C2030      C2031   1.402       .  A
C2030      F2035   1.357   1_545  S
C2031      C2032   1.410       .  A
C2031      F2037   1.355       .  S
C2032      C2033   1.408       .  A
C2033      C2034   1.397   1_545  A
F2036      C2553   1.358       .  S
F2038      C2554   1.358       .  S
C2041      C2042   1.401       .  A
C2041      C2046   1.389       .  A
C2041      F2059   1.353       .  S
C2042      C2047   1.481       .  S
C2042      C2043   1.406       .  A
C2043      C2044   1.405       .  A
C2043      F2048   1.356       .  S
C2044      C2045   1.407       .  A
C2044      F2060   1.355       .  S
C2045      C2046   1.407       .  A
C2046      F2049   1.357       .  S
C2047      C2050   1.406       .  A
C2047      C2054   1.403       .  A
C2050      C2051   1.405       .  A
C2050      F2055   1.357       .  S
C2051      C2052   1.410       .  A
C2051      F2057   1.352       .  S
C2052      C2053   1.410       .  A
C2053      C2054   1.391       .  A
C2053      F2056   1.359       .  S
C2054      F2058   1.358       .  S
C2061      C2062   1.406       .  A
C2061      C2066   1.401       .  A
C2061      F2079   1.357       .  S
C2062      C2067   1.479       .  S
C2062      C2063   1.405       .  A
C2063      C2064   1.398       .  A
C2063      F2588   1.358       .  S
C2064      C2065   1.406       .  A
C2064      F2600   1.358       .  S
C2065      C2066   1.404       .  A
C2066      F2069   1.357       .  S
C2067      C2070   1.405       .  A
C2067      C2074   1.404       .  A
C2070      C2071   1.400       .  A
C2070      F2075   1.358       .  S
C2071      C2072   1.408       .  A
C2071      F2077   1.357       .  S
C2072      C2073   1.406       .  A
C2073      C2074   1.397       .  A
C2073      F2076   1.358       .  S
C2074      F2078   1.358       .  S
O2081      C2084   1.267       .  A
O2081     Cd2086   2.495       .  S
C2082      O2611   1.262       .  A
C2082      O2087   1.266       .  A
C2082      C2585   1.482       .  S
O2083      C2089   1.272       .  A
C2084      O2092   1.264       .  A
C2084      C2565   1.486       .  S
C2085      O2610   1.271       .  A
C2085      O2088   1.262       .  A
C2085      C2525   1.492       .  S
Cd2086     O2603   2.497       .  S
Cd2086     O2093   2.445       .  S
Cd2086     O2092   2.467       .  S
Cd2086     O2611   2.441       .  S
Cd2086     O2087   2.513       .  S
Cd2086     O2610   2.546       .  S
Cd2086     O2088   2.429       .  S
C2089      C2545   1.468       .  S
O2093      C2609   1.262       .  A
O2094      C2097   1.268       .  A
O2094     Cd2099   2.463       .  S
C2095      O2104   1.262       .  A
C2095      O2100   1.261       .  A
C2095      C2512   1.482       .  S
C2097      O2105   1.268       .  A
C2097      C2592   1.482       .  S
C2098      O2623   1.268       .  A
C2098      O2101   1.265       .  A
C2098      C2985   1.473       .  S
Cd2099     O2616   2.479       .  S
Cd2099     O2106   2.485       .  S
Cd2099     O2105   2.454       .  S
Cd2099     O2104   2.479       .  S
Cd2099     O2100   2.478       .  S
Cd2099     O2623   2.475       .  S
Cd2099     O2101   2.447       .  S
C2102      O2616   1.260       .  A
C2102      O2106   1.261       .  A
C2102      C2485   1.485       .  S
C2107      C2572   1.499       .  S
C2107      C2108   1.418       .  A
C2107      C2112   1.404   1_455  A
C2108      C2425   1.488   1_565  S
C2108      C2109   1.400   1_465  A
C2109      C2110   1.409   1_545  A
C2109      H2114   1.083       .  S
C2110      C2452   1.492   1_565  S
C2110      C2111   1.425       .  A
C2111      C2505   1.501       .  S
C2111      C2112   1.410       .  A
C2112      H2113   1.082       .  S
O2115      C2118   1.273       .  A
O2115     Cd2120   2.486       .  S
C2116      O2125   1.267       .  A
C2116      O2121   1.267       .  A
C2116      C2432   1.481       .  S
O2117      C2123   1.262       .  A
C2118      O2126   1.265       .  A
C2118      C2412   1.482       .  S
C2119      O2644   1.272       .  A
C2119      O2122   1.266       .  A
C2119      C2392   1.470       .  S
Cd2120     O2637   2.466       .  S
Cd2120     O2127   2.441       .  S
Cd2120     O2126   2.396       .  S
Cd2120     O2125   2.447       .  S
Cd2120     O2121   2.483       .  S
Cd2120     O2644   2.475       .  S
Cd2120     O2122   2.390       .  S
C2123      C2552   1.486       .  S
O2127      C2643   1.266       .  A
O2128      C2131   1.267       .  A
O2128     Cd2133   2.491       .  S
C2129      O2138   1.263       .  A
C2129      O2134   1.263       .  A
C2129      C2365   1.479       .  S
O2130      C2136   1.268       .  A
O2130     Cd2653   2.462       .  S
C2131      O2139   1.263       .  A
C2131      C2492   1.481       .  S
C2132      O2135   1.264       .  A
C2132      C2405   1.477       .  S
Cd2133     O2140   2.502       .  S
Cd2133     O2139   2.410       .  S
Cd2133     O2138   2.457       .  S
Cd2133     O2134   2.473       .  S
Cd2133     O2135   2.421       .  S
C2136      O2660   1.265       .  A
C2136      C2445   1.479       .  S
O2137      C2652   1.271       .  A
O2137     Cd2653   2.522       .  S
O2141      C2144   1.261       .  A
O2141     Cd2666   2.453       .  S
C2142      O2671   1.263       .  A
C2142      O2147   1.270       .  A
C2142      C2345   1.490       .  S
O2143      C2149   1.265       .  A
O2143     Cd2146   2.499       .  S
C2144      O2672   1.268       .  A
C2144      C2325   1.496       .  S
C2145      O2150   1.267       .  A
C2145      C2532   1.484       .  S
Cd2146     O2153   2.435       .  S
Cd2146     O2152   2.499       .  S
Cd2146     O2151   2.405       .  S
Cd2146     O2150   2.499       .  S
O2147     Cd2666   2.517       .  S
O2148      C2665   1.263       .  A
O2148     Cd2666   2.473       .  S
C2149      O2153   1.263       .  A
C2149      C2312   1.486       .  S
O2154      C2157   1.273       .  A
O2154     Cd2159   2.479       .  S
C2155      O2164   1.262       .  A
C2155      O2160   1.272       .  A
C2155      C2292   1.489       .  S
O2156      C2162   1.267       .  A
O2156     Cd2159   2.490       .  S
C2157      O2165   1.267       .  A
C2157      C2352   1.475       .  S
C2158      O2163   1.271       .  A
C2158      O2161   1.268       .  A
C2158      C2472   1.483       .  S
Cd2159     O2166   2.423       .  S
Cd2159     O2165   2.391       .  S
Cd2159     O2164   2.414       .  S
Cd2159     O2160   2.527       .  S
Cd2159     O2163   2.488       .  S
Cd2159     O2161   2.452       .  S
C2162      O2166   1.262       .  A
C2162      C2272   1.476       .  S
C2167      C2332   1.510       .  S
C2167      C2168   1.417       .  A
C2167      C2172   1.405       .  A
C2168      C2232   1.475       .  S
C2168      C2169   1.398       .  A
C2169      C2170   1.402       .  A
C2169      H2174   1.086       .  S
C2170      C2765   1.484       .  S
C2170      C2171   1.433       .  A
C2171      C2285   1.522       .  S
C2171      C2172   1.419       .  A
C2172      H2173   1.098       .  S
O2175      C2698   1.265       .  A
O2175     Cd2700   2.458       .  S
C2176      O2705   1.262       .  A
C2176      O2181   1.266       .  A
C2176      C2225   1.478       .  S
O2177      C2183   1.263       .  A
O2177     Cd2180   2.469       .  S
C2178      O2186   1.267       .  A
C2178      C2205   1.487       .  S
C2179      O2184   1.270       .  A
C2179      O2182   1.262       .  A
C2179      C2385   1.477       .  S
Cd2180     O2187   2.489       .  S
Cd2180     O2186   2.496       .  S
Cd2180     O2185   2.472       .  S
Cd2180     O2184   2.494       .  S
Cd2180     O2182   2.412       .  S
O2181     Cd2700   2.501       .  S
C2183      O2187   1.261       .  A
C2183      C2305   1.485       .  S
O2188      C2191   1.267       .  A
O2188     Cd2193   2.412       .  S
C2189      O2198   1.270       .  A
C2189      O2194   1.267       .  A
C2189      C2252   1.477       .  S
O2190      C2716   1.267       .  A
O2190     Cd2713   2.403       .  S
C2191      O2199   1.273       .  A
C2191      C2212   1.486       .  S
C2192      O2195   1.275       .  A
C2192      C2372   1.488       .  S
Cd2193     O2200   2.499       .  S
Cd2193     O2199   2.518       .  S
Cd2193     O2198   2.473       .  S
Cd2193     O2194   2.441       .  S
Cd2193     O2195   2.488       .  S
C2196      O2200   1.273       .  A
C2196      C2265   1.471       .  S
O2197      C2712   1.269       .  A
O2197     Cd2713   2.418       .  S
C2201      C2202   1.407       .  A
C2201      C2206   1.401       .  A
C2201      F2219   1.358       .  S
C2202      C2207   1.488   1_455  S
C2202      C2203   1.405       .  A
C2203      C2204   1.400       .  A
C2203      F2208   1.358       .  S
C2204      C2205   1.411       .  A
C2204      F2220   1.358       .  S
C2205      C2206   1.408       .  A
C2206      F2209   1.356       .  S
C2207      C2210   1.405       .  A
C2207      C2214   1.409       .  A
C2210      C2211   1.395       .  A
C2210      F2215   1.358       .  S
C2211      C2212   1.408       .  A
C2211      F2217   1.358       .  S
C2212      C2213   1.410       .  A
C2213      C2214   1.407       .  A
C2213      F2216   1.357       .  S
F2218      C2734   1.358       .  S
C2221      C2222   1.405       .  A
C2221      C2226   1.401       .  A
C2221      F2239   1.358       .  S
C2222      C2227   1.483       .  S
C2222      C2223   1.405       .  A
C2223      C2224   1.397       .  A
C2223      F2228   1.356       .  S
C2224      C2225   1.405       .  A
C2224      F2240   1.358       .  S
C2225      C2226   1.408       .  A
C2226      F2229   1.355       .  S
C2227      C2750   1.406       .  A
C2227      C2234   1.404       .  A
C2230      C2231   1.401       .  A
C2230      F2235   1.358       .  S
C2231      F2237   1.348       .  S
C2232      C2751   1.397       .  A
C2232      C2233   1.403       .  A
C2233      C2234   1.398       .  A
C2233      F2236   1.358       .  S
C2234      F2238   1.351       .  S
C2241      C2242   1.409       .  A
C2241      C2246   1.404       .  A
C2241      F2259   1.357       .  S
C2242      C2247   1.486       .  S
C2243      C2762   1.404       .  A
C2243      C2244   1.400       .  A
C2243      F2248   1.357       .  S
C2244      C2765   1.408       .  A
C2244      F2260   1.357       .  S
C2245      C2246   1.402       .  A
C2246      F2249   1.355       .  S
C2247      C2250   1.408       .  A
C2247      C2254   1.406       .  A
C2250      C2251   1.400       .  A
C2250      F2255   1.358       .  S
C2251      C2252   1.405       .  A
C2251      F2257   1.358       .  S
C2252      C2253   1.407       .  A
C2253      C2254   1.401       .  A
C2253      F2256   1.357       .  S
F2258      C2774   1.358       .  S
C2261      C2262   1.409       .  A
C2261      C2266   1.403       .  A
C2261      F2279   1.355       .  S
C2262      C2267   1.480       .  S
C2262      C2263   1.404       .  A
C2263      C2264   1.393       .  A
C2263      F2268   1.359       .  S
C2264      C2265   1.406       .  A
C2264      F2280   1.358       .  S
C2265      C2266   1.403       .  A
C2266      F2269   1.357       .  S
C2267      C2270   1.404       .  A
C2267      C2274   1.406       .  A
C2270      C2271   1.397       .  A
C2270      F2275   1.358       .  S
C2271      C2272   1.406       .  A
C2271      F2277   1.358       .  S
C2272      C2273   1.406       .  A
C2273      C2274   1.399       .  A
C2273      F2796   1.355       .  S
C2274      F2278   1.355       .  S
C2281      C2282   1.410       .  A
C2281      C2286   1.401       .  A
C2281      F2299   1.356       .  S
C2282      C2287   1.514       .  S
C2283      C2802   1.406       .  A
C2283      C2284   1.395       .  A
C2283      F2288   1.357       .  S
C2284      C2285   1.419       .  A
C2284      F2300   1.356       .  S
C2285      C2806   1.417       .  A
C2286      F2289   1.347       .  S
C2287      C2290   1.419       .  A
C2287      C2294   1.414       .  A
C2290      C2291   1.404       .  A
C2291      C2292   1.404       .  A
C2292      C2293   1.407       .  A
C2293      C2294   1.400       .  A
C2293      F2296   1.358       .  S
C2294      F2298   1.357       .  S
F2295      C2810   1.356       .  S
F2297      C2811   1.354       .  S
C2301      C2302   1.403       .  A
C2301      C2306   1.397       .  A
C2301      F2319   1.358       .  S
C2302      C2307   1.481       .  S
C2302      C2303   1.405       .  A
C2303      C2304   1.401       .  A
C2304      C2305   1.410       .  A
C2304      F2320   1.358       .  S
C2305      C2306   1.409       .  A
C2306      F2309   1.354       .  S
C2307      C2310   1.403       .  A
C2307      C2314   1.405       .  A
F2308      C2823   1.358       .  S
C2310      C2311   1.392       .  A
C2310      F2315   1.359       .  S
C2311      C2312   1.409       .  A
C2311      F2317   1.357       .  S
C2312      C2313   1.412       .  A
C2313      C2314   1.406       .  A
C2313      F2316   1.357       .  S
C2314      F2318   1.357       .  S
C2321      C2322   1.409       .  A
C2321      C2326   1.410       .  A
C2321      F2339   1.357       .  S
C2322      C2327   1.495       .  S
C2322      C2323   1.404       .  A
C2323      C2324   1.400       .  A
C2323      F2328   1.358       .  S
C2324      C2325   1.412       .  A
C2324      F2340   1.357       .  S
C2325      C2326   1.410       .  A
C2326      F2329   1.357       .  S
C2327      C2850   1.407       .  A
C2327      C2334   1.404       .  A
C2330      C2331   1.395       .  A
C2330      F2335   1.358       .  S
C2331      F2337   1.358       .  S
C2332      C2851   1.414       .  A
C2332      C2333   1.406       .  A
C2333      C2334   1.402       .  A
C2333      F2336   1.345       .  S
C2334      F2338   1.358       .  S
C2341      C2862   1.406       .  A
C2341      C2346   1.407       .  A
C2341      F2359   1.357       .  S
C2342      C2347   1.474   1_455  S
C2342      C2343   1.401       .  A
C2343      C2344   1.392       .  A
C2343      F2348   1.357       .  S
C2344      F2360   1.359       .  S
C2345      C2864   1.411       .  A
C2345      C2346   1.411       .  A
C2346      F2349   1.357       .  S
C2347      C2354   1.403       .  A
C2350      C2867   1.407       .  A
C2350      C2351   1.403       .  A
C2350      F2355   1.355       .  S
C2351      C2872   1.406       .  A
C2351      F2357   1.358       .  S
C2352      C2353   1.406       .  A
C2353      C2354   1.394       .  A
C2353      F2356   1.358       .  S
C2354      F2358   1.358       .  S
C2361      C2362   1.405       .  A
C2361      C2366   1.399       .  A
C2361      F2379   1.358       .  S
C2362      C2367   1.479       .  S
C2362      C2363   1.404       .  A
C2363      C2364   1.398       .  A
C2363      F2368   1.358       .  S
C2364      C2365   1.408       .  A
C2364      F2380   1.358       .  S
C2365      C2366   1.409       .  A
C2366      F2369   1.358       .  S
C2367      C2370   1.404       .  A
C2367      C2894   1.405       .  A
C2370      C2371   1.397       .  A
C2370      F2375   1.359       .  S
C2371      C2892   1.407       .  A
C2371      F2377   1.358       .  S
C2372      C2373   1.412       .  A
C2373      C2374   1.407       .  A
C2373      F2376   1.357       .  S
C2374      F2378   1.357       .  S
C2381      C2382   1.404       .  A
C2381      C2386   1.399       .  A
C2381      F2399   1.358       .  S
C2382      C2387   1.475       .  S
C2382      C2383   1.402       .  A
C2383      C2384   1.396       .  A
C2383      F2388   1.358       .  S
C2384      C2385   1.410       .  A
C2384      F2400   1.358       .  S
C2385      C2386   1.406       .  A
C2386      F2389   1.356       .  S
C2387      C2390   1.403       .  A
C2387      C2394   1.406       .  A
C2390      C2391   1.392       .  A
C2390      F2395   1.358       .  S
C2391      C2392   1.405       .  A
C2391      F2397   1.359       .  S
C2392      C2393   1.406       .  A
C2393      C2394   1.402       .  A
C2393      F2916   1.358       .  S
C2394      F2918   1.358       .  S
C2401      C2402   1.402       .  A
C2401      C2406   1.394       .  A
C2401      F2419   1.358       .  S
C2402      C2407   1.476       .  S
C2402      C2403   1.405       .  A
C2404      C2923   1.407       .  A
C2404      C2925   1.409       .  A
C2404      F2420   1.357       .  S
C2405      C2406   1.407       .  A
C2406      F2409   1.358       .  S
C2407      C2410   1.402       .  A
C2407      C2414   1.404       .  A
F2408      C2923   1.357       .  S
C2410      C2411   1.396       .  A
C2410      F2415   1.359       .  S
C2411      C2412   1.412       .  A
C2411      F2417   1.359       .  S
C2412      C2413   1.409       .  A
C2413      C2414   1.402       .  A
C2413      F2416   1.358       .  S
C2414      F2418   1.357       .  S
C2421      C2422   1.406       .  A
C2421      C2426   1.397       .  A
C2421      F2439   1.357       .  S
C2422      C2427   1.483       .  S
C2422      C2423   1.405       .  A
C2424      C2943   1.400       .  A
C2424      C2945   1.416       .  A
C2424      F2440   1.358       .  S
C2425      C2426   1.401       .  A
C2426      F2429   1.355   1_545  S
C2427      C2430   1.405       .  A
C2427      C2434   1.402       .  A
F2428      C2943   1.355       .  S
C2430      C2431   1.404       .  A
C2430      F2435   1.358       .  S
C2431      C2432   1.410       .  A
C2431      F2437   1.356       .  S
C2432      C2433   1.406       .  A
C2433      C2434   1.397       .  A
C2433      F2436   1.358       .  S
C2434      F2438   1.355       .  S
C2441      C2442   1.400       .  A
C2441      F2459   1.359       .  S
C2442      C2447   1.473       .  S
C2443      C2962   1.411       .  A
C2443      C2444   1.406       .  A
C2443      F2448   1.357       .  S
C2444      C2445   1.405       .  A
C2444      F2460   1.358       .  S
C2445      C2446   1.405       .  A
C2446      C2961   1.398       .  A
C2446      F2969   1.356       .  S
C2447      C2454   1.400       .  A
C2450      C2967   1.407       .  A
C2450      C2451   1.403       .  A
C2450      F2455   1.358       .  S
C2451      C2972   1.405       .  A
C2451      F2457   1.350   1_545  S
C2452      C2453   1.410       .  A
C2453      C2454   1.393       .  A
C2453      F2456   1.358       .  S
C2454      F2458   1.358       .  S
C2461      C2982   1.405       .  A
C2461      C2466   1.401       .  A
C2461      F2479   1.358       .  S
C2462      C2467   1.483       .  S
C2462      C2463   1.406       .  A
C2463      C2464   1.404       .  A
C2463      F2468   1.357       .  S
C2464      C2465   1.407       .  A
C2464      F2480   1.358       .  S
C2466      C2985   1.407       .  A
C2466      F2469   1.358       .  S
C2467      C2470   1.405       .  A
C2467      C2474   1.405       .  A
C2470      C2471   1.401       .  A
C2471      C2472   1.408       .  A
C2472      C2473   1.408       .  A
C2473      C2474   1.403       .  A
C2473      F2476   1.358       .  S
C2474      F2478   1.357       .  S
F2475      C2990   1.357       .  S
F2477      C2991   1.358       .  S
C2481      C2482   1.406       .  A
C2481      C2486   1.398       .  A
C2481      F2499   1.358       .  S
C2482      C2487   1.482       .  S
C2482      C2483   1.404       .  A
C2483      C2484   1.398       .  A
C2483      F2488   1.359       .  S
C2484      C2485   1.411       .  A
C2484      F3020   1.356       .  S
C2485      C2486   1.409       .  A
C2486      F2489   1.358       .  S
C2487      C2490   1.407   1_565  A
C2487      C2494   1.404       .  A
C2490      C2491   1.404       .  A
C2490      F2495   1.357   1_545  S
C2491      C2492   1.410       .  A
C2491      F2497   1.357       .  S
C2492      C2493   1.409       .  A
C2493      C2494   1.389   1_545  A
C2493      F2496   1.358       .  S
C2494      F2498   1.359       .  S
C2501      C2502   1.399       .  A
C2501      C2506   1.399       .  A
C2502      C2507   1.479       .  S
C2502      C2503   1.402       .  A
C2503      C2504   1.398       .  A
C2503      F2508   1.358       .  S
C2504      C2505   1.410       .  A
C2504      F2520   1.349       .  S
C2505      C2506   1.412       .  A
C2507      C2510   1.404       .  A
C2507      C2514   1.403       .  A
F2509      C3026   1.357       .  S
C2510      C2511   1.399       .  A
C2510      F2515   1.356       .  S
C2511      C2512   1.407       .  A
C2511      F2517   1.358       .  S
C2512      C2513   1.410       .  A
C2513      C2514   1.399       .  A
C2513      F2516   1.356       .  S
C2514      F2518   1.358       .  S
F2519      C3021   1.351       .  S
C2521      C2522   1.404       .  A
C2521      C2526   1.398       .  A
C2521      F2539   1.358       .  S
C2522      C2527   1.489       .  S
C2522      C2523   1.408       .  A
C2523      C2524   1.408       .  A
C2523      F2528   1.357       .  S
C2524      C2525   1.410       .  A
C2524      F2540   1.357       .  S
C2525      C2526   1.412       .  A
C2526      F2529   1.358       .  S
C2527      C2530   1.407       .  A
C2527      C2534   1.406       .  A
C2530      C2531   1.403       .  A
C2530      F2535   1.358       .  S
C2531      C2532   1.407       .  A
C2531      F2537   1.358       .  S
C2532      C2533   1.408       .  A
C2533      C2534   1.402       .  A
C2534      F2538   1.357       .  S
F2536      C3053   1.358       .  S
C2541      C3062   1.404       .  A
C2541      C3066   1.397       .  A
C2541      F2559   1.358       .  S
C2542      C2547   1.478       .  S
C2542      C2543   1.406       .  A
C2543      C2544   1.402       .  A
C2543      F2548   1.357       .  S
C2544      C2545   1.404       .  A
C2544      F2560   1.356       .  S
C2545      C2546   1.403       .  A
C2547      C2550   1.402       .  A
C2547      C2554   1.404       .  A
F2549      C3066   1.358       .  S
C2550      C2551   1.399   1_565  A
C2550      F2555   1.358       .  S
C2551      C2552   1.411       .  A
C2551      F2557   1.355       .  S
C2552      C2553   1.410       .  A
C2553      C2554   1.399   1_545  A
F2556      C3073   1.358       .  S
F2558      C3074   1.358       .  S
C2561      C2562   1.406       .  A
C2561      C2566   1.402       .  A
C2561      F2579   1.358       .  S
C2562      C2567   1.489       .  S
C2562      C2563   1.407       .  A
C2563      C2564   1.403       .  A
C2563      F2568   1.358       .  S
C2564      C2565   1.409       .  A
C2564      F2580   1.358       .  S
C2565      C2566   1.410       .  A
C2566      F2569   1.358       .  S
C2567      C2570   1.405       .  A
C2567      C2574   1.407       .  A
C2570      C2571   1.398       .  A
C2570      F2575   1.356       .  S
C2571      C2572   1.406       .  A
C2571      F2577   1.351       .  S
C2572      C2573   1.410       .  A
C2573      C2574   1.403       .  A
C2573      F2576   1.358       .  S
C2574      F2578   1.357       .  S
C2581      C2582   1.405       .  A
C2581      C2586   1.406       .  A
C2581      F2599   1.357       .  S
C2582      C2587   1.479       .  S
C2582      C2583   1.403       .  A
C2583      C2584   1.395       .  A
C2583      F3108   1.358       .  S
C2584      C2585   1.407       .  A
C2584      F3120   1.358       .  S
C2585      C2586   1.410       .  A
C2586      F2589   1.357       .  S
C2587      C2590   1.403       .  A
C2587      C2594   1.404       .  A
C2590      C2591   1.401       .  A
C2590      F2595   1.358       .  S
C2591      C2592   1.409       .  A
C2591      F2597   1.357       .  S
C2592      C2593   1.408       .  A
C2593      C2594   1.400       .  A
C2593      F2596   1.358       .  S
C2594      F2598   1.358       .  S
O2601      C2604   1.273       .  A
O2601     Cd2606   2.504       .  S
C2602      O2607   1.274       .  A
C2602      C3105   1.477       .  S
O2603      C2609   1.267       .  A
C2604      O2612   1.266       .  A
C2604      C3085   1.482       .  S
C2605      O2608   1.266       .  A
C2605      C3045   1.472       .  S
Cd2606     O2613   2.401       .  S
Cd2606     O2612   2.386       .  S
Cd2606     O2607   2.490       .  S
Cd2606     O2608   2.414       .  S
C2609      C3065   1.483       .  S
O2614      C2617   1.268       .  A
O2614     Cd2619   2.474       .  S
C2615      O2624   1.262       .  A
C2615      O2620   1.265       .  A
C2615      C3032   1.485       .  S
C2617      O2625   1.266       .  A
C2617      C3112   1.480       .  S
C2618      O2621   1.266       .  A
Cd2619     O2626   2.466       .  S
Cd2619     O2625   2.424       .  S
Cd2619     O2624   2.457       .  S
Cd2619     O2620   2.527       .  S
Cd2619     O2621   2.429       .  S
C2622      O2626   1.263   1_554  A
C2622      C3005   1.484       .  S
C2627      C3092   1.499       .  S
C2627      C2628   1.428       .  A
C2627      C2632   1.410   1_455  A
C2628      C2945   1.504   1_565  S
C2628      C2629   1.412   1_465  A
C2629      C2630   1.406   1_545  A
C2629      H2634   1.083       .  S
C2630      C2972   1.501   1_565  S
C2630      C2631   1.420       .  A
C2631      C3025   1.494       .  S
C2631      C2632   1.404       .  A
C2632      H2633   1.086       .  S
O2635      C2638   1.272       .  A
O2635     Cd2640   2.485       .  S
C2636      O2645   1.264       .  A
C2636      O2641   1.269       .  A
C2636      C2952   1.479       .  S
O2637      C2643   1.269       .  A
C2638      O2646   1.268       .  A
C2638      C2932   1.485       .  S
C2639      O2642   1.266       .  A
C2639      C2912   1.484       .  S
Cd2640     O2647   2.448       .  S
Cd2640     O2646   2.437       .  S
Cd2640     O2645   2.450       .  S
Cd2640     O2641   2.500       .  S
Cd2640     O2642   2.415       .  S
C2643      C3072   1.485       .  S
O2648      C2651   1.269       .  A
O2648     Cd2653   2.529   1_554  S
C2649      O2658   1.265   1_554  A
C2649      O2654   1.269       .  A
C2649      C2885   1.486       .  S
O2650      C2656   1.263       .  A
C2651      O2659   1.259   1_554  A
C2651      C3012   1.487       .  S
C2652      O2655   1.264       .  A
C2652      C2925   1.485       .  S
Cd2653     O2660   2.480       .  S
Cd2653     O2659   2.422       .  S
Cd2653     O2658   2.468       .  S
Cd2653     O2654   2.508   1_556  S
Cd2653     O2655   2.426       .  S
C2656      C2965   1.477       .  S
O2661      C2664   1.259       .  A
C2662      O2667   1.267   1_554  A
C2662      C2865   1.483   1_554  S
O2663      C2669   1.266       .  A
O2663     Cd2666   2.467       .  S
C2664      C2845   1.482   1_554  S
C2665      O2670   1.264       .  A
C2665      C3052   1.488       .  S
Cd2666     O2673   2.434       .  S
Cd2666     O2672   2.546       .  S
Cd2666     O2671   2.455       .  S
Cd2666     O2670   2.503       .  S
C2669      O2673   1.264       .  A
C2669      C2832   1.479       .  S
O2674      C2677   1.273       .  A
O2674     Cd2679   2.482       .  S
C2675      O2684   1.264       .  A
C2675      O2680   1.269       .  A
C2675      C2812   1.487       .  S
O2676      C2682   1.271       .  A
O2676     Cd2679   2.515       .  S
C2677      O2685   1.269       .  A
C2677      C2872   1.478       .  S
C2678      O2683   1.275       .  A
C2678      O2681   1.267       .  A
C2678      C2992   1.481       .  S
Cd2679     O2686   2.427       .  S
Cd2679     O2685   2.421       .  S
Cd2679     O2684   2.426       .  S
Cd2679     O2680   2.499       .  S
Cd2679     O2683   2.483       .  S
Cd2679     O2681   2.412       .  S
C2682      O2686   1.265       .  A
C2682      C2792   1.490       .  S
C2687      C2852   1.498       .  S
C2687      C2688   1.427       .  A
C2687      C2692   1.416       .  A
C2688      C2752   1.514       .  S
C2688      C2689   1.412       .  A
C2689      C2690   1.407       .  A
C2689      H2694   1.068       .  S
C2690      C2691   1.423       .  A
C2691      C2805   1.516       .  S
C2691      C2692   1.417       .  A
C2692      H2693   1.056       .  S
C2696      O2701   1.266       .  A
C2696      C2745   1.478       .  S
O2697      C2703   1.260       .  A
O2697     Cd2700   2.452       .  S
C2698      O2706   1.267       .  A
C2698      C2725   1.476       .  S
C2699      O2704   1.268       .  A
C2699      O2702   1.266       .  A
C2699      C2905   1.480       .  S
Cd2700     O2707   2.478       .  S
Cd2700     O2706   2.463       .  S
Cd2700     O2705   2.445       .  S
Cd2700     O2704   2.492       .  S
Cd2700     O2702   2.435       .  S
C2703      O2707   1.261       .  A
C2703      C2825   1.481       .  S
O2708      C2711   1.268       .  A
O2708     Cd2713   2.397       .  S
C2709      O2718   1.276       .  A
C2709      O2714   1.268       .  A
C2709      C2772   1.483       .  S
C2711      O2719   1.276       .  A
C2711      C2732   1.488       .  S
C2712      O2715   1.274       .  A
C2712      C2892   1.478       .  S
Cd2713     O2720   2.493       .  S
Cd2713     O2719   2.512       .  S
Cd2713     O2718   2.475       .  S
Cd2713     O2714   2.403       .  S
Cd2713     O2715   2.476       .  S
C2716      O2720   1.275       .  A
C2716      C2785   1.478       .  S
C2721      C2722   1.409       .  A
C2721      C2726   1.399       .  A
C2721      F2739   1.358       .  S
C2722      C2727   1.491   1_455  S
C2722      C2723   1.409       .  A
C2723      C2724   1.402       .  A
C2723      F2728   1.358       .  S
C2724      C2725   1.407       .  A
C2724      F2740   1.358       .  S
C2725      C2726   1.403       .  A
C2726      F2729   1.357       .  S
C2727      C2730   1.406       .  A
C2727      C2734   1.410       .  A
C2730      C2731   1.394       .  A
C2730      F2735   1.358       .  S
C2731      C2732   1.409       .  A
C2731      F2737   1.358       .  S
C2732      C2733   1.410       .  A
C2733      C2734   1.407       .  A
C2733      F2736   1.357       .  S
C2741      C2742   1.405       .  A
C2741      C2746   1.400       .  A
C2741      F2759   1.358       .  S
C2742      C2747   1.483       .  S
C2742      C2743   1.406   1_556  A
C2743      C2744   1.400       .  A
C2743      F2748   1.357       .  S
C2744      C2745   1.406       .  A
C2744      F2760   1.358       .  S
C2745      C2746   1.407   1_554  A
C2746      F2749   1.354       .  S
C2747      C2754   1.399       .  A
C2750      C2751   1.398       .  A
C2750      F2755   1.355       .  S
C2751      F2757   1.354       .  S
C2752      C2753   1.419       .  A
C2753      C2754   1.399       .  A
C2753      F2756   1.358       .  S
C2754      F2758   1.356       .  S
C2761      C2762   1.408       .  A
C2761      C2766   1.402       .  A
C2761      F2779   1.358       .  S
C2762      C2767   1.483       .  S
C2763      C2764   1.398       .  A
C2763      F2768   1.357       .  S
C2764      F2780   1.358       .  S
C2765      C2766   1.399       .  A
C2766      F2769   1.350       .  S
C2767      C2770   1.404       .  A
C2767      C2774   1.406       .  A
C2770      C2771   1.399       .  A
C2770      F2775   1.357       .  S
C2771      C2772   1.409       .  A
C2771      F2777   1.358       .  S
C2772      C2773   1.407       .  A
C2773      C2774   1.402       .  A
C2773      F2776   1.355       .  S
C2781      C2782   1.407       .  A
C2781      C2786   1.408       .  A
C2781      F2799   1.357       .  S
C2782      C2787   1.485       .  S
C2782      C2783   1.404       .  A
C2783      C2784   1.397       .  A
C2783      F2788   1.356       .  S
C2784      C2785   1.406       .  A
C2784      F2800   1.359       .  S
C2785      C2786   1.406       .  A
C2786      F2789   1.357       .  S
C2787      C2790   1.402       .  A
C2787      C2794   1.405       .  A
C2790      C2791   1.396       .  A
C2790      F2795   1.354       .  S
C2791      C2792   1.408       .  A
C2791      F2797   1.358       .  S
C2792      C2793   1.412       .  A
C2793      C2794   1.408       .  A
C2794      F2798   1.357       .  S
C2801      C2802   1.411       .  A
C2801      C2806   1.403       .  A
C2801      F2819   1.357       .  S
C2802      C2807   1.505       .  S
C2803      C2804   1.399       .  A
C2803      F2808   1.357       .  S
C2804      C2805   1.412       .  A
C2804      F2820   1.357       .  S
C2806      F2809   1.348       .  S
C2807      C2810   1.412       .  A
C2807      C2814   1.413       .  A
C2810      C2811   1.401       .  A
C2811      C2812   1.406       .  A
C2812      C2813   1.405       .  A
C2813      C2814   1.398       .  A
C2813      F2816   1.358       .  S
C2814      F2818   1.357       .  S
C2821      C2822   1.403   1_554  A
C2821      C2826   1.398   1_554  A
C2821      F2839   1.358       .  S
C2822      C2827   1.477       .  S
C2822      C2823   1.405       .  A
C2823      C2824   1.396       .  A
C2824      C2825   1.408       .  A
C2824      F2840   1.358       .  S
C2825      C2826   1.410       .  A
C2826      F2829   1.356   1_556  S
C2827      C2830   1.404       .  A
C2827      C2834   1.403       .  A
C2830      C2831   1.394       .  A
C2830      F2835   1.359       .  S
C2831      C2832   1.409       .  A
C2831      F2837   1.358       .  S
C2832      C2833   1.408       .  A
C2833      C2834   1.400       .  A
C2833      F2836   1.356       .  S
C2834      F2838   1.357       .  S
C2841      C2842   1.406       .  A
C2841      C2846   1.404       .  A
C2841      F2859   1.357       .  S
C2842      C2847   1.480       .  S
C2842      C2843   1.402       .  A
C2843      C2844   1.397       .  A
C2843      F2848   1.358       .  S
C2844      C2845   1.410       .  A
C2844      F2860   1.358   1_556  S
C2845      C2846   1.408       .  A
C2846      F2849   1.358       .  S
C2847      C2854   1.404       .  A
C2850      C2851   1.407       .  A
C2850      F2855   1.358       .  S
C2851      F2857   1.357       .  S
C2852      C2853   1.410       .  A
C2853      C2854   1.403       .  A
C2853      F2856   1.349       .  S
C2854      F2858   1.357       .  S
C2861      C2866   1.406       .  A
C2861      F2879   1.358       .  S
C2862      C2867   1.485   1_455  S
C2862      C2863   1.404       .  A
C2863      C2864   1.398       .  A
C2863      F2868   1.358       .  S
C2864      F2880   1.358       .  S
C2865      C2866   1.410       .  A
C2866      F2869   1.358       .  S
C2867      C2874   1.405       .  A
C2870      C2871   1.402       .  A
C2870      F2875   1.358       .  S
C2871      F2877   1.358       .  S
C2872      C2873   1.407       .  A
C2873      C2874   1.400       .  A
C2873      F2876   1.358       .  S
C2874      F2878   1.358       .  S
C2881      C2882   1.404       .  A
C2881      C2886   1.404       .  A
C2881      F2899   1.358       .  S
C2882      C2887   1.482       .  S
C2882      C2883   1.403       .  A
C2883      C2884   1.401       .  A
C2883      F2888   1.358   1_554  S
C2884      C2885   1.409       .  A
C2884      F2900   1.358   1_554  S
C2885      C2886   1.409       .  A
C2886      F2889   1.357       .  S
C2887      C2890   1.401       .  A
C2890      C2891   1.397       .  A
C2890      F2895   1.358   1_554  S
C2891      F2897   1.358   1_554  S
C2892      C2893   1.407       .  A
C2893      C2894   1.402       .  A
C2893      F2896   1.357       .  S
C2894      F2898   1.357       .  S
C2901      C2902   1.406   1_554  A
C2901      C2906   1.405   1_554  A
C2901      F2919   1.357       .  S
C2902      C2907   1.478       .  S
C2902      C2903   1.402       .  A
C2903      C2904   1.395       .  A
C2903      F2908   1.358       .  S
C2904      C2905   1.407       .  A
C2904      F2920   1.358       .  S
C2905      C2906   1.409       .  A
C2906      F2909   1.357   1_556  S
C2907      C2910   1.401       .  A
C2907      C2914   1.404   1_556  A
C2910      C2911   1.395       .  A
C2910      F2915   1.359       .  S
C2911      C2912   1.410       .  A
C2911      F2917   1.358       .  S
C2912      C2913   1.409   1_556  A
C2913      C2914   1.405       .  A
C2921      C2922   1.403       .  A
C2921      C2926   1.397       .  A
C2921      F2939   1.357       .  S
C2922      C2927   1.484       .  S
C2922      C2923   1.407       .  A
C2924      F2940   1.357       .  S
C2925      C2926   1.409       .  A
C2926      F2929   1.358       .  S
C2927      C2930   1.404       .  A
C2927      C2934   1.406       .  A
C2930      C2931   1.400       .  A
C2930      F2935   1.358       .  S
C2931      C2932   1.409       .  A
C2931      F2937   1.358       .  S
C2932      C2933   1.409       .  A
C2933      C2934   1.404       .  A
C2933      F2936   1.358       .  S
C2934      F2938   1.357       .  S
C2941      C2942   1.403       .  A
C2941      C2946   1.400   1_545  A
C2941      F2959   1.358       .  S
C2942      C2947   1.481       .  S
C2942      C2943   1.399       .  A
C2944      F2960   1.358   1_554  S
C2945      C2946   1.410   1_545  A
C2946      F2949   1.350       .  S
C2947      C2950   1.404       .  A
C2947      C2954   1.405       .  A
C2950      C2951   1.400       .  A
C2950      F2955   1.358       .  S
C2951      C2952   1.407       .  A
C2951      F2957   1.353       .  S
C2952      C2953   1.406       .  A
C2953      C2954   1.400       .  A
C2953      F2956   1.358       .  S
C2954      F2958   1.357       .  S
C2961      C2962   1.406       .  A
C2961      F2979   1.358       .  S
C2962      C2967   1.492       .  S
C2963      C2964   1.402       .  A
C2963      F2968   1.358       .  S
C2964      C2965   1.405       .  A
C2964      F2980   1.357       .  S
C2965      C2966   1.407       .  A
C2967      C2974   1.406       .  A
C2970      C2971   1.398       .  A
C2970      F2975   1.358   1_554  S
C2971      F2977   1.347   1_544  S
C2972      C2973   1.411       .  A
C2973      C2974   1.403       .  A
C2973      F2976   1.358       .  S
C2974      F2978   1.357       .  S
C2981      C2986   1.396   1_554  A
C2981      F2999   1.356   1_554  S
C2982      C2987   1.477       .  S
C2982      C2983   1.403       .  A
C2983      C2984   1.398       .  A
C2983      F2988   1.357       .  S
C2984      C2985   1.405       .  A
C2984      F3000   1.358       .  S
C2986      F2989   1.359       .  S
C2987      C2990   1.402       .  A
C2987      C2994   1.403       .  A
C2990      C2991   1.397       .  A
C2991      C2992   1.409       .  A
C2992      C2993   1.408       .  A
C2993      C2994   1.403       .  A
C2993      F2996   1.357       .  S
C2994      F2998   1.355       .  S
C3001      C3002   1.405       .  A
C3001      C3006   1.399       .  A
C3001      F3019   1.357   1_554  S
C3002      C3007   1.483       .  S
C3002      C3003   1.405       .  A
C3003      C3004   1.399       .  A
C3003      F3008   1.358       .  S
C3004      C3005   1.410       .  A
C3005      C3006   1.408       .  A
C3006      F3009   1.358   1_554  S
C3007      C3010   1.407   1_565  A
C3007      C3014   1.403       .  A
C3010      C3011   1.406       .  A
C3010      F3015   1.357   1_545  S
C3011      C3012   1.410       .  A
C3011      F3017   1.357       .  S
C3012      C3013   1.411       .  A
C3013      C3014   1.392   1_545  A
C3013      F3016   1.358       .  S
C3014      F3018   1.359       .  S
C3021      C3022   1.405       .  A
C3021      C3026   1.404       .  A
C3022      C3027   1.492       .  S
C3022      C3023   1.407       .  A
C3023      C3024   1.400       .  A
C3023      F3028   1.358       .  S
C3024      C3025   1.401       .  A
C3024      F3040   1.350       .  S
C3025      C3026   1.408       .  A
C3027      C3030   1.404       .  A
C3027      C3034   1.407       .  A
C3030      C3031   1.398       .  A
C3030      F3035   1.354       .  S
C3031      C3032   1.406       .  A
C3031      F3037   1.358       .  S
C3032      C3033   1.411       .  A
C3033      C3034   1.407       .  A
C3033      F3036   1.356       .  S
C3034      F3038   1.356       .  S
C3041      C3042   1.406       .  A
C3041      C3046   1.396       .  A
C3041      F3059   1.358       .  S
C3042      C3047   1.482       .  S
C3042      C3043   1.407       .  A
C3043      C3044   1.402       .  A
C3043      F3048   1.357   1_556  S
C3044      C3045   1.405       .  A
C3044      F3060   1.358   1_556  S
C3045      C3046   1.404       .  A
C3046      F3049   1.358       .  S
C3047      C3050   1.404       .  A
C3047      C3054   1.405       .  A
C3050      C3051   1.400       .  A
C3050      F3055   1.358   1_556  S
C3051      C3052   1.410       .  A
C3051      F3057   1.354       .  S
C3052      C3053   1.410       .  A
C3053      C3054   1.399       .  A
C3054      F3058   1.358       .  S
C3061      F3079   1.358       .  S
C3062      C3067   1.480       .  S
C3062      C3063   1.404       .  A
C3063      C3064   1.402       .  A
C3063      F3068   1.357       .  S
C3064      C3065   1.410       .  A
C3064      F3080   1.358       .  S
C3065      C3066   1.409       .  A
C3067      C3070   1.402   1_565  A
C3067      C3074   1.406       .  A
C3070      C3071   1.399       .  A
C3070      F3075   1.356   1_545  S
C3071      C3072   1.410       .  A
C3071      F3077   1.354       .  S
C3072      C3073   1.409       .  A
C3073      C3074   1.398   1_545  A
C3081      C3082   1.400       .  A
C3081      C3086   1.389       .  A
C3081      F3099   1.354       .  S
C3082      C3087   1.484       .  S
C3082      C3083   1.408       .  A
C3083      C3084   1.410       .  A
C3083      F3088   1.357       .  S
C3084      C3085   1.410       .  A
C3084      F3100   1.356       .  S
C3085      C3086   1.407       .  A
C3086      F3089   1.358       .  S
C3087      C3090   1.405       .  A
C3087      C3094   1.404       .  A
C3090      C3091   1.406       .  A
C3090      F3095   1.357       .  S
C3091      C3092   1.412       .  A
C3091      F3097   1.352       .  S
C3092      C3093   1.411       .  A
C3093      C3094   1.394       .  A
C3093      F3096   1.359       .  S
C3094      F3098   1.359       .  S
C3101      C3102   1.403       .  A
C3101      C3106   1.404       .  A
C3101      F3119   1.356       .  S
C3102      C3107   1.475       .  S
C3102      C3103   1.401       .  A
C3103      C3104   1.391       .  A
C3104      C3105   1.408       .  A
C3105      C3106   1.408       .  A
C3106      F3109   1.357       .  S
C3107      C3110   1.402       .  A
C3107      C3114   1.402       .  A
C3110      C3111   1.401       .  A
C3110      F3115   1.357       .  S
C3111      C3112   1.410       .  A
C3111      F3117   1.355       .  S
C3112      C3113   1.408       .  A
C3113      C3114   1.394       .  A
C3113      F3116   1.358       .  S
C3114      F3118   1.356       .  S
