geometry optimzed in LAMMPS
_audit_creation_date              2020-11-30 
_audit_creation_method            'lammps2cif' 
_symmetry_space_group_name_H-M    'P1' 
_symmetry_Int_Tables_number       1 
_symmetry_cell_setting            triclinic 
loop_ 
_symmetry_equiv_pos_as_xyz 
  x,y,z 
_cell_length_a                    27.28374497 
_cell_length_b                    27.293006025395734 
_cell_length_c                    27.337489024905523 
_cell_angle_alpha                 89.93631589544097 
_cell_angle_beta                  90.01672844637324 
_cell_angle_gamma                 92.92698949065472 
loop_ 
_atom_site_label 
_atom_site_type_symbol 
_atom_site_fract_x 
_atom_site_fract_y 
_atom_site_fract_z 
_atom_site_charge 
O1          O  0.54638851  0.04392177  0.88777746    -0.85400
O2          O  0.52479550  0.06648750  0.60985897    -0.85500
O3          O  0.63341082  0.04350434  0.74679652    -0.87200
O4          O  0.52164929  0.15411764  0.75186123    -0.86000
O5          O  0.43724656  0.15020004  0.75248255    -0.85500
O6          O  0.62986769  0.95913887  0.74657249    -0.86900
O7          O  0.56624661  0.10917835  0.67097460    -0.85400
O8          O  0.58835446  0.08711991  0.82723694    -0.85000
Zr9        Zr  0.54910523  0.07008770  0.74920801     2.84300
O10         O  0.47918183  0.06668379  0.70154778    -1.07000
O11         O  0.54620316  0.00000830  0.79684549    -1.07700
C12         C  0.58266635  0.07132478  0.87139872     1.07700
C13         C  0.55155582  0.10309443  0.62650207     1.07700
C14         C  0.65300425  0.00137013  0.74765397     1.10700
C15         C  0.47939772  0.17353160  0.75125565     1.08400
H16         H  0.57606691  0.00245400  0.67667131     0.34000
O17         O  0.54734969  0.00134990  0.69740609    -1.27900
H18         H  0.48123405  0.09593813  0.82192193     0.33700
O19         O  0.48030138  0.06737955  0.80104794    -1.29600
O20         O  0.43221267  0.93027631  0.60812431    -0.85400
O21         O  0.40936388  0.95145323  0.88950098    -0.86900
O22         O  0.56367568  0.90022217  0.66917948    -0.85400
O23         O  0.39571214  0.10894392  0.67401588    -0.85500
O24         O  0.37941527  0.08227074  0.83004617    -0.85200
O25         O  0.58799277  0.91516243  0.82432956    -0.85000
O26         O  0.42913240  0.84300730  0.75284746    -0.85400
O27         O  0.32259438  0.94889918  0.74384211    -0.84800
O28         O  0.51349663  0.84659315  0.74821649    -0.85900
O29         O  0.32564603  0.03319141  0.74914521    -0.85100
O30         O  0.52963395  0.94685513  0.60898621    -0.85500
O31         O  0.54607434  0.94983748  0.88712135    -0.85200
O32         O  0.42680299  0.04895413  0.89007018    -0.84800
O33         O  0.43058495  0.06714127  0.61122723    -0.85200
O34         O  0.39587607  0.88280635  0.66891683    -0.85500
O35         O  0.36220965  0.91525991  0.82845279    -0.86900
Zr36       Zr  0.47553829  0.00061580  0.64897621     2.83100
Zr37       Zr  0.47991492  0.99523120  0.84914612     2.83500
Zr38       Zr  0.54451128  0.93133035  0.74855367     2.84100
Zr39       Zr  0.41034919  0.06462144  0.74985180     2.83400
Zr40       Zr  0.40574586  0.92598478  0.74876536     2.84200
O41         O  0.41232247  0.99484961  0.79756011    -1.07400
O42         O  0.47501690  0.93298373  0.70045970    -1.06900
C43         C  0.40997338  0.89017871  0.62395231     1.07700
C44         C  0.36935707  0.92915928  0.87350698     1.10300
C45         C  0.55400543  0.91100872  0.62461682     1.07900
C46         C  0.40880513  0.10433556  0.62895959     1.08200
C47         C  0.39052334  0.07275460  0.87462116     1.07800
C48         C  0.58320548  0.92789728  0.86942090     1.07400
C49         C  0.47093699  0.82390341  0.74930087     1.07800
C50         C  0.30318463  0.99052852  0.74757874     1.07300
H51         H  0.47532713  0.89547758  0.82128394     0.34000
O52         O  0.47556961  0.92428464  0.80068652    -1.28500
H53         H  0.37552947  0.99580931  0.67638648     0.34000
O54         O  0.40419819  0.99604785  0.69716390    -1.29900
C55         C  0.67265827  0.26876948  0.52607371     0.87600
C56         C  0.64942486  0.22972034  0.55967354    -0.52600
C57         C  0.59993078  0.22489602  0.55569099     0.10500
C58         C  0.57821109  0.26099976  0.51920185     0.21500
C59         C  0.65434233  0.25530932  0.47464570    -0.53300
C60         C  0.60497892  0.24760261  0.47074636     0.10600
C61         C  0.64931396  0.31638249  0.53982115    -0.52900
C62         C  0.59932569  0.31364234  0.53692306     0.11200
H63         H  0.67062756  0.20495799  0.58143514     0.15700
H64         H  0.53759796  0.25768658  0.51631185     0.01500
H65         H  0.67918249  0.24369357  0.44624218     0.16000
H66         H  0.67057517  0.35042911  0.54676618     0.15800
O67         O  0.55110200  0.09226943  0.38948948    -0.85400
O68         O  0.57120020  0.07509499  0.10873801    -0.85500
O69         O  0.65825563  0.07399939  0.25520095    -0.87200
O70         O  0.55021072  0.18004907  0.24483114    -0.86000
O71         O  0.46577070  0.17648757  0.24812926    -0.85500
O72         O  0.65579399  0.98966855  0.25117085    -0.86900
O73         O  0.61767932  0.11281513  0.16958750    -0.85400
O74         O  0.59000771  0.13902896  0.32948447    -0.85000
Zr75       Zr  0.57509401  0.09746381  0.24935048     2.84300
O76         O  0.50512576  0.09942709  0.19771473    -1.07000
O77         O  0.57708133  0.02730363  0.30059317    -1.07700
C78         C  0.57538311  0.13163138  0.37431866     1.07700
C79         C  0.61063699  0.09871493  0.12452611     1.07700
C80         C  0.67803848  0.03244993  0.25261087     1.10700
C81         C  0.50834447  0.19916443  0.24748505     1.08400
H82         H  0.59948258  0.02669474  0.18224540     0.34000
O83         O  0.56986232  0.02776012  0.20115079    -1.27900
H84         H  0.50337664  0.12045390  0.31632831     0.33700
O85         O  0.50488315  0.09109680  0.29711528    -1.29600
O86         O  0.43723778  0.97809853  0.10876317    -0.85400
O87         O  0.45551590  0.95644280  0.38680538    -0.86900
O88         O  0.60041333  0.93657642  0.16907039    -0.85400
O89         O  0.39360949  0.10976542  0.17220824    -0.85500
O90         O  0.41312642  0.11984929  0.32912314    -0.85200
O91         O  0.58894324  0.91671150  0.32621701    -0.85000
O92         O  0.45945546  0.86832604  0.24399241    -0.85400
O93         O  0.34758078  0.97845435  0.25017651    -0.84800
O94         O  0.54380542  0.87227882  0.24573116    -0.85900
O95         O  0.35012660  0.06279638  0.25096781    -0.85100
O96         O  0.55533394  0.97350621  0.10929722    -0.85500
O97         O  0.55227898  0.95843987  0.38807832    -0.85200
O98         O  0.44935413  0.07414172  0.38879749    -0.84800
O99         O  0.43574160  0.07378531  0.11018727    -0.85200
O100        O  0.39591612  0.93292929  0.16849440    -0.85500
O101        O  0.41201114  0.91477495  0.32617605    -0.86900
Zr102      Zr  0.50200557  0.02842067  0.14898998     2.83100
Zr103      Zr  0.50547465  0.02270550  0.34845720     2.83500
Zr104      Zr  0.57111581  0.95803712  0.24897746     2.84100
Zr105      Zr  0.43540752  0.09155100  0.24891976     2.83400
Zr106      Zr  0.43222659  0.95249120  0.24776675     2.84200
O107        O  0.43373245  0.02136746  0.29956873    -1.07400
O108        O  0.50179539  0.95607670  0.19701758    -1.06900
C109        C  0.40166892  0.94917431  0.12442340     1.07700
C110        C  0.42748830  0.92051842  0.37049235     1.10300
C111        C  0.58987247  0.94710347  0.12454948     1.07900
C112        C  0.39867842  0.09647513  0.12722028     1.08200
C113        C  0.42329741  0.10896146  0.37365980     1.07800
C114        C  0.57555756  0.92177911  0.37120935     1.07400
C115        C  0.50165931  0.84882959  0.24534456     1.07800
C116        C  0.32742005  0.02031827  0.24979453     1.07300
H117        H  0.50143514  0.92542244  0.31381493     0.34000
O118        O  0.50177894  0.95581180  0.29602117    -1.28500
H119        H  0.40469455  0.02210705  0.18290576     0.34000
O120        O  0.43492239  0.02290321  0.20096515    -1.29900
C121        C  0.23498615  0.82943277  0.02652339     0.87600
C122        C  0.24774510  0.84829074  0.97504465    -0.52600
C123        C  0.25459385  0.89775371  0.97129391     0.10500
C124        C  0.24133138  0.92390185  0.02012811     0.21500
C125        C  0.27402717  0.85294274  0.05984546    -0.53300
C126        C  0.27826791  0.90245410  0.05603539     0.10600
C127        C  0.18712783  0.85191605  0.04096042    -0.52900
C128        C  0.18902938  0.90186322  0.03826016     0.11200
H129        H  0.25938966  0.82383983  0.94633767     0.15700
H130        H  0.24401713  0.96453313  0.01755560     0.01500
H131        H  0.29947589  0.83191555  0.08096166     0.16000
H132        H  0.15343672  0.83010106  0.04808013     0.15800
C133        C  0.73230397  0.83097738  0.00058866     0.87600
C134        C  0.69744855  0.84858017  0.03920019    -0.52600
C135        C  0.69291787  0.89786253  0.03779680     0.10500
C136        C  0.72372884  0.92542550  0.99871788     0.21500
C137        C  0.71267061  0.84957907  0.95191664    -0.53300
C138        C  0.70520607  0.89867137  0.95134145     0.10600
C139        C  0.78005905  0.85976926  0.00974132    -0.52900
C140        C  0.77704119  0.90972150  0.00911315     0.11200
H141        H  0.67607182  0.82418165  0.06345700     0.15700
H142        H  0.71981606  0.96571362  0.99787163     0.01500
H143        H  0.69749286  0.82463000  0.92415956     0.16000
H144        H  0.81429253  0.84172542  0.01521698     0.15800
C145        C  0.66970585  0.76948293  0.50016737     0.87600
C146        C  0.65135802  0.79074460  0.45219783    -0.52600
C147        C  0.60231067  0.79830885  0.45181266     0.10500
C148        C  0.57529515  0.77795170  0.49851163     0.21500
C149        C  0.65190112  0.80284812  0.53999744    -0.53300
C150        C  0.60257992  0.80727855  0.53866840     0.10600
C151        C  0.64111304  0.72145940  0.50759676    -0.52900
C152        C  0.59118333  0.72440342  0.50731211     0.11200
H153        H  0.67647316  0.80688229  0.42504143     0.15700
H154        H  0.53497815  0.78177126  0.49776884     0.01500
H155        H  0.67619748  0.82356561  0.56484507     0.16000
H156        H  0.65932807  0.68722419  0.51239648     0.15800
C157        C  0.24697353  0.18831858  0.99635680     0.87600
C158        C  0.26685533  0.17048665  0.04517926    -0.52600
C159        C  0.27471291  0.12153214  0.04640297     0.10500
C160        C  0.25570245  0.09399650  0.99957784     0.21500
C161        C  0.28159397  0.17016996  0.95777535    -0.53300
C162        C  0.28613139  0.12089627  0.95990897     0.10600
C163        C  0.19919605  0.15945711  0.98784501    -0.52900
C164        C  0.20232014  0.10955436  0.98912091     0.11200
H165        H  0.28223482  0.19594673  0.07238928     0.15700
H166        H  0.25961565  0.05373214  0.00101442     0.01500
H167        H  0.30291085  0.19421705  0.93314043     0.16000
H168        H  0.16493491  0.17739507  0.98215914     0.15800
C169        C  0.74878583  0.19139195  0.97072737     0.87600
C170        C  0.70942911  0.16790227  0.93773563    -0.52600
C171        C  0.70412859  0.11857421  0.94284459     0.10500
C172        C  0.73994129  0.09726382  0.97983344     0.21500
C173        C  0.73528997  0.17444881  0.02259361    -0.53300
C174        C  0.72702084  0.12531502  0.02769415     0.10600
C175        C  0.79606335  0.16731081  0.95739462    -0.52900
C176        C  0.79268955  0.11745669  0.96147172     0.11200
H177        H  0.68501950  0.18886651  0.91532040     0.15700
H178        H  0.73618738  0.05675664  0.98370035     0.01500
H179        H  0.72410151  0.20008435  0.05045410     0.16000
H180        H  0.83029395  0.18801831  0.94974203     0.15800
C181        C  0.31340497  0.25526457  0.49819278     0.87600
C182        C  0.32981911  0.22051163  0.45905495    -0.52600
C183        C  0.37890148  0.21479469  0.45983294     0.10500
C184        C  0.40758351  0.24479302  0.49886209     0.21500
C185        C  0.33205370  0.23475094  0.54645384    -0.53300
C186        C  0.38097083  0.22641583  0.54645208     0.10600
C187        C  0.34292559  0.30253628  0.48914299    -0.52900
C188        C  0.39279943  0.29864981  0.48922008     0.11200
H189        H  0.30464702  0.19966208  0.43514254     0.15700
H190        H  0.44774625  0.24000247  0.49914451     0.01500
H191        H  0.30711942  0.21991339  0.57442948     0.16000
H192        H  0.32540381  0.33713249  0.48417831     0.15800
C193        C  0.30956576  0.75470252  0.47240820     0.87600
C194        C  0.32883913  0.76838949  0.52346911    -0.52600
C195        C  0.37833406  0.77556838  0.52655418     0.10500
C196        C  0.40412013  0.76197039  0.47763373     0.21500
C197        C  0.33235554  0.79339261  0.43825285    -0.53300
C198        C  0.38188082  0.79800870  0.44137289     0.10600
C199        C  0.33234400  0.70689307  0.45845813    -0.52900
C200        C  0.38234276  0.70938698  0.46052190     0.11200
H201        H  0.30459598  0.78017746  0.55230632     0.15700
H202        H  0.44479150  0.76508560  0.47971931     0.01500
H203        H  0.31088812  0.81818450  0.41678818     0.16000
H204        H  0.31077845  0.67292534  0.45201137     0.15800
O205        O  0.84022573  0.75444434  0.54050518    -0.85400
O206        O  0.02338169  0.75990099  0.33345111    -0.85500
O207        O  0.89048254  0.82528088  0.38936075    -0.87200
O208        O  0.87905724  0.66834021  0.40812918    -0.86000
O209        O  0.92787413  0.61308201  0.44522971    -0.85500
O210        O  0.92318367  0.89058063  0.43421892    -0.86900
O211        O  0.93922116  0.75072409  0.33844793    -0.85400
O212        O  0.83554534  0.75416287  0.45656244    -0.85000
Zr213      Zr  0.91743778  0.75014226  0.42402321     2.84300
O214        O  0.99046467  0.70809916  0.41580521    -1.07000
O215        O  0.91799455  0.80208697  0.49266421    -1.07700
C216        C  0.81684429  0.75553898  0.49965410     1.07700
C217        C  0.98001502  0.75594930  0.31499867     1.07700
C218        C  0.89916665  0.87114807  0.39811381     1.10700
C219        C  0.88817391  0.62433888  0.42178572     1.08400
H220        H  0.98061043  0.82615581  0.39135681     0.34000
O221        O  0.98341391  0.80754534  0.42108483    -1.27900
H222        H  0.89586725  0.68190711  0.49540956     0.33700
O223        O  0.92490858  0.70336150  0.49337028    -1.29600
O224        O  0.14141054  0.77520653  0.43677023    -0.85400
O225        O  0.95865741  0.75332691  0.64512752    -0.86900
O226        O  0.02803399  0.90589604  0.41996949    -0.85400
O227        O  0.06321265  0.62846909  0.43867613    -0.85500
O228        O  0.94831874  0.61413831  0.54474109    -0.85200
O229        O  0.93381225  0.89280252  0.55456830    -0.85000
O230        O  0.07513929  0.85467469  0.59220954    -0.85400
O231        O  0.10258836  0.69851773  0.57741645    -0.84800
O232        O  0.02960190  0.90920667  0.54976042    -0.85900
O233        O  0.06294172  0.63238526  0.53920023    -0.85100
O234        O  0.06979585  0.84969825  0.37571399    -0.85500
O235        O  0.90168926  0.82767561  0.60010640    -0.85200
O236        O  0.89840853  0.66866944  0.58183390    -0.84800
O237        O  0.10209003  0.69388661  0.39887468    -0.85200
O238        O  0.14632653  0.77692674  0.52086672    -0.85500
O239        O  0.04240340  0.76597873  0.63970583    -0.86900
Zr240      Zr  0.05622391  0.76843148  0.41499394     2.83100
Zr241      Zr  0.92611343  0.75256133  0.56229532     2.83500
Zr242      Zr  0.98449459  0.86057089  0.48809062     2.84100
Zr243      Zr  0.99701022  0.66140051  0.48750779     2.83400
Zr244      Zr  0.06373463  0.77272203  0.55398416     2.84200
O245        O  0.99927482  0.71161607  0.55830800    -1.07400
O246        O  0.05987394  0.82225673  0.48340194    -1.06900
C247        C  0.16464367  0.77416934  0.47754860     1.07700
C248        C  0.00195766  0.75991235  0.66363859     1.10300
C249        C  0.05445629  0.89337074  0.38271780     1.07900
C250        C  0.09928358  0.64862485  0.41383724     1.08200
C251        C  0.91053322  0.62534472  0.56927891     1.07800
C252        C  0.91040341  0.87376910  0.59190538     1.07400
C253        C  0.05608309  0.89692266  0.58650708     1.07800
C254        C  0.09722098  0.65275902  0.56612898     1.07300
H255        H  0.99017386  0.82837362  0.58617511     0.34000
O256        O  0.99061775  0.81006601  0.55621554    -1.28500
H257        H  0.08991058  0.70693357  0.48587504     0.34000
O258        O  0.05927988  0.72275393  0.48575661    -1.29900
O259        O  0.83593949  0.24573934  0.47813066    -0.85400
O260        O  0.04349181  0.27126104  0.66040851    -0.85500
O261        O  0.91139955  0.17308801  0.62359458    -0.87200
O262        O  0.88095473  0.32913405  0.59992704    -0.86000
O263        O  0.92035591  0.39438034  0.56032083    -0.85500
O264        O  0.95277201  0.11647538  0.57953210    -0.86900
O265        O  0.95929981  0.26228364  0.66539691    -0.85400
O266        O  0.84102512  0.24860139  0.56217444    -0.85000
Zr267      Zr  0.92626503  0.25422296  0.58407573     2.84300
O268        O  0.99247412  0.31425360  0.58336425    -1.07000
O269        O  0.92215105  0.20022902  0.51586306    -1.07700
C270        C  0.81769266  0.24921772  0.52142868     1.07700
C271        C  0.00267226  0.26585301  0.68379398     1.07700
C272        C  0.92626402  0.12918094  0.61672163     1.10700
C273        C  0.88402004  0.37434576  0.58486149     1.08400
H274        H  0.00149269  0.19610742  0.60774561     0.34000
O275        O  0.99887142  0.21473364  0.57799809    -1.27900
H276        H  0.89311770  0.31572391  0.51316523     0.33700
O277        O  0.92365352  0.29976113  0.51328026    -1.29600
O278        O  0.14719685  0.26844321  0.54219667    -0.85400
O279        O  0.93981318  0.25524872  0.35944685    -0.86900
O280        O  0.05797261  0.13118815  0.56568221    -0.85400
O281        O  0.05632028  0.40878747  0.55276529    -0.85500
O282        O  0.92014148  0.39016805  0.46034564    -0.85200
O283        O  0.95188042  0.11298753  0.44960179    -0.85000
O284        O  0.08100759  0.19365527  0.39965582    -0.85400
O285        O  0.08406779  0.35294599  0.41682251    -0.84800
O286        O  0.04803990  0.12873875  0.44497487    -0.85900
O287        O  0.03498535  0.40793495  0.45438079    -0.85100
O288        O  0.09224372  0.19663606  0.60930576    -0.85500
O289        O  0.90665426  0.16777635  0.40714603    -0.85200
O290        O  0.88030902  0.32420824  0.42199630    -0.84800
O291        O  0.10490364  0.35336356  0.58988527    -0.85200
O292        O  0.14237308  0.26837603  0.45826614    -0.85500
O293        O  0.02353028  0.26799213  0.35379891    -0.86900
Zr294      Zr  0.06526914  0.27179902  0.57484269     2.83100
Zr295      Zr  0.91866783  0.24967176  0.44521713     2.83500
Zr296      Zr  0.99722064  0.16135618  0.51130475     2.84100
Zr297      Zr  0.98620325  0.36082858  0.51153866     2.83400
Zr298      Zr  0.05627060  0.26905385  0.43664657     2.84200
O299        O  0.98340284  0.31053975  0.44070482    -1.07400
O300        O  0.06407938  0.21954670  0.50639982    -1.06900
C301        C  0.16589810  0.26765369  0.49907688     1.07700
C302        C  0.98019595  0.26109809  0.33540540     1.10300
C303        C  0.08267417  0.15077243  0.60126690     1.07900
C304        C  0.09616329  0.39737273  0.57587432     1.08200
C305        C  0.88578361  0.36991915  0.43344773     1.07800
C306        C  0.92548844  0.12543703  0.41285597     1.07400
C307        C  0.07189639  0.14760559  0.40779261     1.07800
C308        C  0.07240411  0.39640606  0.42946650     1.07300
H309        H  0.99198628  0.19333180  0.41310036     0.34000
O310        O  0.99153569  0.21176907  0.44298458    -1.28500
H311        H  0.08699515  0.33952966  0.50310769     0.34000
O312        O  0.05782195  0.31830639  0.50541761    -1.29900
C313        C  0.74388272  0.51666326  0.66796379     0.87600
C314        C  0.75415596  0.46435041  0.65251196    -0.52600
C315        C  0.76436124  0.45946232  0.60403390     0.10500
C316        C  0.75606685  0.50739105  0.57442244     0.21500
C317        C  0.78611284  0.54866328  0.64856070    -0.53300
C318        C  0.79289114  0.54354967  0.59989184     0.10600
C319        C  0.69994831  0.53115902  0.63904266    -0.52900
C320        C  0.70446822  0.52637612  0.58933552     0.11200
H321        H  0.76287587  0.43655677  0.67928471     0.15700
H322        H  0.76160826  0.50351362  0.53442148     0.01500
H323        H  0.81072815  0.57103935  0.67178063     0.16000
H324        H  0.66635103  0.54152759  0.65683850     0.15800
C325        C  0.24524438  0.53438398  0.68605951     0.87600
C326        C  0.21293617  0.57475442  0.66823757    -0.52600
C327        C  0.20936235  0.57691352  0.61866117     0.10500
C328        C  0.23944327  0.53925165  0.59160982     0.21500
C329        C  0.22340181  0.48720774  0.66240061    -0.53300
C330        C  0.21693074  0.48978174  0.61309659     0.10600
C331        C  0.29506503  0.54531769  0.66219320    -0.52900
C332        C  0.29346661  0.54906787  0.61251576     0.11200
H333        H  0.19132165  0.59657780  0.69257792     0.15700
H334        H  0.23700207  0.54145381  0.55113902     0.01500
H335        H  0.20643140  0.45758206  0.68417947     0.16000
H336        H  0.32927911  0.54645306  0.68265260     0.15800
C337        C  0.82367785  0.02067364  0.25217159     0.87600
C338        C  0.82898203  0.97520066  0.28275131    -0.52600
C339        C  0.87615080  0.96406525  0.28946745     0.10500
C340        C  0.91453806  0.99942814  0.26499083     0.21500
C341        C  0.85413152  0.06143612  0.27703251    -0.53300
C342        C  0.90098302  0.04990865  0.28702409     0.10600
C343        C  0.84948259  0.01042429  0.20515448    -0.52900
C344        C  0.89807147  0.99937440  0.20999317     0.11200
H345        H  0.79821891  0.95515512  0.30025756     0.15700
H346        H  0.95336393  0.99052432  0.27095872     0.01500
H347        H  0.83727696  0.09280552  0.29340129     0.16000
H348        H  0.83018531  0.01227225  0.17043727     0.15800
C349        C  0.80159243  0.99035202  0.75246717     0.87600
C350        C  0.82932636  0.03801656  0.73629331    -0.52600
C351        C  0.87843523  0.03427381  0.72926779     0.10500
C352        C  0.89560071  0.98276064  0.74530571     0.21500
C353        C  0.81584977  0.95206995  0.71515419    -0.53300
C354        C  0.86518052  0.94856299  0.71055674     0.10600
C355        C  0.82471407  0.97499310  0.80058750    -0.52900
C356        C  0.87418834  0.97007605  0.79843266     0.11200
H357        H  0.81010541  0.06942977  0.72320727     0.15700
H358        H  0.93587294  0.97936205  0.74213194     0.01500
H359        H  0.78949246  0.93288179  0.69119497     0.16000
H360        H  0.80428250  0.97278594  0.83472526     0.15800
C361        C  0.73945400  0.48655853  0.31107603     0.87600
C362        C  0.76173086  0.53400150  0.33386100    -0.52600
C363        C  0.76756517  0.53241008  0.38329813     0.10500
C364        C  0.74400355  0.48376209  0.40558699     0.21500
C365        C  0.77095235  0.44613728  0.33019389    -0.53300
C366        C  0.77389527  0.44507440  0.37984806     0.10600
C367        C  0.68923856  0.47688869  0.33439255    -0.52900
C368        C  0.69015021  0.47424256  0.38407097     0.11200
H369        H  0.77944069  0.56285494  0.31161856     0.15700
H370        H  0.74585802  0.48246477  0.44612940     0.01500
H371        H  0.79267216  0.42360137  0.30663720     0.16000
H372        H  0.65531042  0.47550559  0.31345870     0.15800
C373        C  0.23937408  0.50490511  0.33020539     0.87600
C374        C  0.19715396  0.47287892  0.34961325    -0.52600
C375        C  0.18999659  0.47837599  0.39817866     0.10500
C376        C  0.22644221  0.51492632  0.42362428     0.21500
C377        C  0.22863976  0.55729204  0.34515717    -0.53300
C378        C  0.21821994  0.56257372  0.39356667     0.10600
C379        C  0.28321019  0.49090776  0.35968993    -0.52900
C380        C  0.27821955  0.49606602  0.40933525     0.11200
H381        H  0.17284050  0.45012518  0.32643753     0.15700
H382        H  0.22054894  0.51906515  0.46354455     0.01500
H383        H  0.22003001  0.58486179  0.31812156     0.16000
H384        H  0.31708761  0.48070499  0.34232718     0.15800
C385        C  0.17850315  0.03054025  0.24580584     0.87600
C386        C  0.16491137  0.06946897  0.28273109    -0.52600
C387        C  0.11567710  0.07327965  0.28801100     0.10500
C388        C  0.08458797  0.03879707  0.25397556     0.21500
C389        C  0.15070091  0.98330306  0.26299264    -0.53300
C390        C  0.10167250  0.98746941  0.27023188     0.10600
C391        C  0.15471332  0.04519593  0.19775180    -0.52900
C392        C  0.10524318  0.05031132  0.20042870     0.11200
H393        H  0.19168537  0.08865512  0.30624777     0.15700
H394        H  0.04439503  0.04247034  0.25763137     0.01500
H395        H  0.16980997  0.95189680  0.27627223     0.16000
H396        H  0.17465581  0.04662036  0.16331323     0.15800
C397        C  0.15800606  0.00253412  0.74758821     0.87600
C398        C  0.12819216  0.96204458  0.72164295    -0.52600
C399        C  0.08118736  0.97312393  0.71191735     0.10500
C400        C  0.06699777  0.02299896  0.73491165     0.21500
C401        C  0.15240721  0.04861693  0.71803255    -0.53300
C402        C  0.10510307  0.05930549  0.71126479     0.10600
C403        C  0.13201606  0.01138444  0.79468331    -0.52900
C404        C  0.08342174  0.02208931  0.78994942     0.11200
H405        H  0.14545075  0.93117296  0.70477345     0.15700
H406        H  0.02807662  0.03162095  0.72906488     0.01500
H407        H  0.18305693  0.06916425  0.70087006     0.16000
H408        H  0.15128081  0.00904005  0.82938098     0.15800
O409        O  0.74646128  0.66475302  0.95671883    -0.85400
O410        O  0.73545610  0.45666504  0.13865516    -0.85500
O411        O  0.67243300  0.59783862  0.09890369    -0.87200
O412        O  0.83164425  0.60124449  0.08184042    -0.86000
O413        O  0.88654775  0.55203678  0.04431763    -0.85500
O414        O  0.60743923  0.56533763  0.05349255    -0.86900
O415        O  0.74806124  0.54037210  0.14438325    -0.85400
O416        O  0.74613241  0.65957311  0.04061785    -0.85000
Zr417      Zr  0.74789606  0.57338774  0.06187770     2.84300
O418        O  0.78903863  0.50038824  0.05751636    -1.07000
O419        O  0.69844041  0.58138677  0.99236076    -1.07700
C420        C  0.74513906  0.68328239  0.99989991     1.07700
C421        C  0.74181751  0.49697298  0.16268407     1.07700
C422        C  0.62637237  0.58905978  0.09061047     1.10700
C423        C  0.87509117  0.58948427  0.06923563     1.08400
H424        H  0.67220616  0.50896384  0.08575212     0.34000
O425        O  0.69055209  0.50862342  0.05578323    -1.27900
H426        H  0.81855293  0.60415197  0.99548259     0.33700
O427        O  0.79724962  0.57503688  0.99315322    -1.29600
O428        O  0.72534462  0.35328768  0.01910675    -0.85400
O429        O  0.75065236  0.56126504  0.83833646    -0.86900
O430        O  0.59184450  0.46929362  0.04918410    -0.85400
O431        O  0.86886995  0.43756800  0.03881535    -0.85500
O432        O  0.88774819  0.57303013  0.94545255    -0.85200
O433        O  0.60976551  0.57692810  0.93522791    -0.85000
O434        O  0.65156867  0.43002998  0.87479077    -0.85400
O435        O  0.80719124  0.39806392  0.89828853    -0.84800
O436        O  0.59515255  0.47160706  0.91891432    -0.85900
O437        O  0.87254144  0.43688819  0.93818335    -0.85100
O438        O  0.64647624  0.42335654  0.09104008    -0.85500
O439        O  0.67487421  0.60976536  0.89010293    -0.85200
O440        O  0.83234458  0.62198199  0.90875368    -0.84800
O441        O  0.80275288  0.39743913  0.07670949    -0.85200
O442        O  0.72629398  0.35894122  0.93504451    -0.85500
O443        O  0.74127324  0.47715918  0.83303607    -0.86900
Zr444      Zr  0.72830640  0.43564316  0.05297371     2.83100
Zr445      Zr  0.75055121  0.58288726  0.92388737     2.83500
Zr446      Zr  0.64018627  0.51471119  0.98749296     2.84100
Zr447      Zr  0.83958121  0.50321850  0.98694949     2.83400
Zr448      Zr  0.73269514  0.44409998  0.91426208     2.84200
O449        O  0.79287763  0.51002090  0.91528768    -1.07400
O450        O  0.67869637  0.43953557  0.98250634    -1.06900
C451        C  0.72813452  0.33545645  0.97557198     1.07700
C452        C  0.74539241  0.52056750  0.81479206     1.10300
C453        C  0.60430742  0.44261551  0.08571241     1.07900
C454        C  0.84858478  0.40321297  0.06574626     1.08200
C455        C  0.87639015  0.61295292  0.92243070     1.07800
C456        C  0.62901148  0.60123752  0.89922912     1.07400
C457        C  0.60782416  0.44529016  0.88164987     1.07800
C458        C  0.85241170  0.40079447  0.91338369     1.07300
H459        H  0.67462970  0.51966437  0.89076545     0.34000
O460        O  0.69326434  0.51671829  0.92046176    -1.28500
H461        H  0.79438655  0.41027990  0.98511655     0.34000
O462        O  0.77840832  0.44080444  0.98494866    -1.29900
O463        O  0.25462695  0.66070014  0.06145708    -0.85400
O464        O  0.23301859  0.47846453  0.85307935    -0.85500
O465        O  0.33226532  0.59528745  0.90510847    -0.87200
O466        O  0.17603819  0.62044644  0.92105883    -0.86000
O467        O  0.11041129  0.58005724  0.95953978    -0.85500
O468        O  0.38752771  0.54995922  0.94677012    -0.86900
O469        O  0.24568058  0.56216043  0.85863245    -0.85400
O470        O  0.25549283  0.66586821  0.97739134    -0.85000
Zr471      Zr  0.25092899  0.58316252  0.94443487     2.84300
O472        O  0.19016558  0.51826472  0.94045199    -1.07000
O473        O  0.30102524  0.57983145  0.01456749    -1.07700
C474        C  0.25347391  0.68413449  0.02079098     1.07700
C475        C  0.24003516  0.52177854  0.83460765     1.07700
C476        C  0.37468070  0.57644684  0.91019230     1.10700
C477        C  0.13033981  0.61439072  0.93236120     1.08400
H478        H  0.30701571  0.50999646  0.91199694     0.34000
O479        O  0.28882591  0.51041662  0.94202819    -1.27900
H480        H  0.18497234  0.60886775  0.01265343     0.33700
O481        O  0.20099301  0.57833426  0.01279219    -1.29600
O482        O  0.23381553  0.35962844  0.95721241    -0.85400
O483        O  0.24024262  0.54265192  0.16464684    -0.86900
O484        O  0.37210901  0.45427140  0.94326608    -0.85400
O485        O  0.09279881  0.46582655  0.95529443    -0.85500
O486        O  0.10682785  0.58040971  0.06086367    -0.85200
O487        O  0.38512247  0.54900521  0.07782973    -0.85000
O488        O  0.30642603  0.41045822  0.10819334    -0.85400
O489        O  0.14886772  0.39641414  0.09009380    -0.84800
O490        O  0.37104377  0.44334615  0.06239252    -0.85900
O491        O  0.09297965  0.44484745  0.05345063    -0.85100
O492        O  0.30693219  0.42117935  0.89844634    -0.85500
O493        O  0.32859104  0.59015779  0.12224760    -0.85200
O494        O  0.17233818  0.62045285  0.09937682    -0.84800
O495        O  0.14769708  0.41717174  0.91704789    -0.85200
O496        O  0.23478713  0.35438403  0.04112237    -0.85500
O497        O  0.23154081  0.45844589  0.15994454    -0.86900
Zr498      Zr  0.23172967  0.44557881  0.93599900     2.83100
Zr499      Zr  0.24739473  0.57545517  0.08310565     2.83500
Zr500      Zr  0.34000743  0.50491342  0.00964016     2.84100
Zr501      Zr  0.14042119  0.51503701  0.01166054     2.83400
Zr502      Zr  0.23041108  0.43620555  0.07432003     2.84200
O503        O  0.18778263  0.50891383  0.08294973    -1.07400
O504        O  0.28192964  0.43792071  0.00527304    -1.06900
C505        C  0.23536703  0.33592370  0.99784793     1.07700
C506        C  0.23685880  0.49934130  0.18323363     1.10300
C507        C  0.35301038  0.43043727  0.90628591     1.07900
C508        C  0.10424781  0.42853800  0.93017859     1.08200
C509        C  0.12692676  0.61696782  0.08493987     1.07800
C510        C  0.37246433  0.57532376  0.11515279     1.07400
C511        C  0.35216458  0.41957962  0.09892450     1.07800
C512        C  0.10466728  0.40503951  0.07647791     1.07300
H513        H  0.30598700  0.50044293  0.10631204     0.34000
O514        O  0.28709385  0.50298353  0.07673987    -1.28500
H515        H  0.16203433  0.41429931  0.00319852     0.34000
O516        O  0.18315080  0.44355771  0.00532439    -1.29900
C517        C  0.01335346  0.76275961  0.81216640     0.87600
C518        C  0.05372942  0.73054429  0.83005143    -0.52600
C519        C  0.05555786  0.72678714  0.87961766     0.10500
C520        C  0.01769866  0.75670274  0.90657385     0.21500
C521        C  0.96608179  0.74061485  0.83553588    -0.53300
C522        C  0.96843398  0.73397172  0.88485191     0.10600
C523        C  0.02399468  0.81251087  0.83614992    -0.52900
C524        C  0.02748571  0.81083536  0.88581406     0.11200
H525        H  0.07556916  0.70889009  0.80575303     0.15700
H526        H  0.01973007  0.75414349  0.94704366     0.01500
H527        H  0.93669057  0.72352107  0.81356842     0.16000
H528        H  0.02521056  0.84675263  0.81572569     0.15800
C529        C  0.99694274  0.26178234  0.83042113     0.87600
C530        C  0.94434647  0.27196822  0.84514733    -0.52600
C531        C  0.93866906  0.28195010  0.89358495     0.10500
C532        C  0.98623154  0.27376765  0.92382668     0.21500
C533        C  0.02859124  0.30399065  0.85031176    -0.53300
C534        C  0.02272627  0.31071596  0.89887991     0.10600
C535        C  0.01104809  0.21778817  0.85950346    -0.52900
C536        C  0.00553638  0.22225452  0.90912284     0.11200
H537        H  0.91688823  0.28061271  0.81801229     0.15700
H538        H  0.98177120  0.27920691  0.96377584     0.01500
H539        H  0.05134453  0.32863166  0.82742540     0.16000
H540        H  0.02164127  0.18420171  0.84187678     0.15800
C541        C  0.48293444  0.67882427  0.75058074     0.87600
C542        C  0.44095570  0.64883128  0.77418551    -0.52600
C543        C  0.45154814  0.60179036  0.78451932     0.10500
C544        C  0.50247311  0.58772778  0.76387673     0.21500
C545        C  0.52725015  0.67295610  0.78262183    -0.53300
C546        C  0.53749767  0.62559352  0.78967887     0.10600
C547        C  0.49448011  0.65327603  0.70392115    -0.52900
C548        C  0.50438482  0.60455573  0.70885818     0.11200
H549        H  0.40937785  0.66608574  0.78968436     0.15700
H550        H  0.51066511  0.54874105  0.76996758     0.01500
H551        H  0.54704864  0.70344867  0.80077826     0.16000
H552        H  0.49388843  0.67275593  0.66920232     0.15800
C553        C  0.51155868  0.69957097  0.25064136     0.87600
C554        C  0.54997096  0.68462752  0.21375162    -0.52600
C555        C  0.55288698  0.63522415  0.20942051     0.10500
C556        C  0.51814827  0.60531905  0.24410469     0.21500
C557        C  0.46375979  0.67223552  0.23420835    -0.53300
C558        C  0.46701928  0.62300455  0.22764108     0.10600
C559        C  0.52616704  0.67630156  0.29907873    -0.52900
C560        C  0.53060432  0.62667720  0.29721219     0.11200
H561        H  0.56946367  0.71062363  0.18960492     0.15700
H562        H  0.52111167  0.56499160  0.24111759     0.01500
H563        H  0.43268991  0.69170380  0.22067887     0.16000
H564        H  0.52834363  0.69681822  0.33313254     0.15800
C565        C  0.96745131  0.25630242  0.18706084     0.87600
C566        C  0.01475888  0.27768875  0.16321781    -0.52600
C567        C  0.01216020  0.28406975  0.11391369     0.10500
C568        C  0.96251402  0.26159149  0.09265549     0.21500
C569        C  0.92728355  0.28880572  0.16915804    -0.53300
C570        C  0.92505100  0.29208001  0.11957371     0.10600
C571        C  0.95611752  0.20639880  0.16361897    -0.52900
C572        C  0.95238584  0.20763820  0.11396836     0.11200
H573        H  0.04448932  0.29458643  0.18488387     0.15700
H574        H  0.96026782  0.26382273  0.05217402     0.01500
H575        H  0.90559862  0.31064989  0.19341733     0.16000
H576        H  0.95477179  0.17234470  0.18435515     0.15800
C577        C  0.98364044  0.75685091  0.16793326     0.87600
C578        C  0.95135103  0.71473245  0.14875784    -0.52600
C579        C  0.95654585  0.70756098  0.10014259     0.10500
C580        C  0.99304835  0.74399768  0.07445421     0.21500
C581        C  0.03588709  0.74606417  0.15261045    -0.53300
C582        C  0.04084737  0.73571713  0.10418680     0.10600
C583        C  0.96957745  0.80072313  0.13860726    -0.52900
C584        C  0.97452512  0.79584343  0.08893373     0.11200
H585        H  0.92879429  0.69040222  0.17213042     0.15700
H586        H  0.99696287  0.73815587  0.03450373     0.01500
H587        H  0.06362914  0.73739304  0.17944536     0.16000
H588        H  0.95953893  0.83456788  0.15610587     0.15800
C589        C  0.46905759  0.32225296  0.74572991     0.87600
C590        C  0.51678717  0.34957228  0.76226424    -0.52600
C591        C  0.51339250  0.39873198  0.76902927     0.10500
C592        C  0.46224680  0.41637335  0.75273369     0.21500
C593        C  0.43057115  0.33683756  0.78265231    -0.53300
C594        C  0.42746283  0.38617159  0.78719959     0.10600
C595        C  0.45444709  0.34560276  0.69743669    -0.52900
C596        C  0.45012528  0.39517670  0.69953381     0.11200
H597        H  0.54794283  0.33012640  0.77562758     0.15700
H598        H  0.45917297  0.45667718  0.75588721     0.01500
H599        H  0.41101727  0.31064150  0.80654819     0.16000
H600        H  0.45239223  0.32523320  0.66328775     0.15800
C601        C  0.49787237  0.34450547  0.24805535     0.87600
C602        C  0.45313011  0.35062312  0.21670045    -0.52600
C603        C  0.44338171  0.39803841  0.20925222     0.10500
C604        C  0.47930417  0.43574978  0.23393165     0.21500
C605        C  0.53982102  0.37370292  0.22349767    -0.53300
C606        C  0.52958090  0.42072427  0.21267009     0.10600
C607        C  0.48748457  0.37083090  0.29459933    -0.52900
C608        C  0.47818025  0.41967347  0.28908077     0.11200
H609        H  0.43275664  0.32017368  0.19905544     0.15700
H610        H  0.47153179  0.47479271  0.22752214     0.01500
H611        H  0.57087175  0.35583117  0.20766146     0.16000
H612        H  0.48844578  0.35192449  0.32961581     0.15800
O613        O  0.57050974  0.39397509  0.56602875    -0.85400
O614        O  0.45136590  0.48781718  0.34297341    -0.85500
O615        O  0.46274071  0.35542380  0.46364564    -0.87200
O616        O  0.60795344  0.44489791  0.41569209    -0.86000
O617        O  0.63895053  0.52429082  0.42497347    -0.85500
O618        O  0.40176185  0.37779508  0.51547830    -0.86900
O619        O  0.50146739  0.42839697  0.36851182    -0.85400
O620        O  0.55828635  0.36565719  0.48753112    -0.85000
Zr621      Zr  0.51988968  0.43145716  0.45196544     2.84300
O622        O  0.52202778  0.51010233  0.41817791    -1.07000
O623        O  0.48727761  0.43141574  0.53144438    -1.07700
C624        C  0.57336785  0.36050880  0.53113961     1.07700
C625        C  0.47653461  0.44894190  0.33558768     1.07700
C626        C  0.42299179  0.34612107  0.48969093     1.10700
C627        C  0.64288604  0.48020796  0.41104666     1.08400
H628        H  0.41849237  0.44005352  0.43042137     0.34000
O629        O  0.43972684  0.46116923  0.45048526    -1.27900
H630        H  0.60228430  0.46738053  0.50173517     0.33700
O631        O  0.57050806  0.48122683  0.50073104    -1.29600
O632        O  0.40998843  0.62868509  0.43153529    -0.85400
O633        O  0.53051692  0.53577092  0.65514828    -0.86900
O634        O  0.33404956  0.47260462  0.47692662    -0.85400
O635        O  0.56046367  0.59484771  0.37769996    -0.85500
O636        O  0.64893153  0.54954349  0.52121238    -0.85200
O637        O  0.42118361  0.42649132  0.61895305    -0.85000
O638        O  0.37509369  0.57862650  0.57974513    -0.85400
O639        O  0.52107516  0.66803936  0.53280232    -0.84800
O640        O  0.34440495  0.49897723  0.57157412    -0.85900
O641        O  0.58361091  0.64444468  0.48344457    -0.85100
O642        O  0.35803227  0.52471509  0.41445625    -0.85500
O643        O  0.50038270  0.43986832  0.64650463    -0.85200
O644        O  0.62388273  0.49976359  0.58527058    -0.84800
O645        O  0.48078268  0.58270755  0.35103577    -0.85200
O646        O  0.42456584  0.65790100  0.50932784    -0.85500
O647        O  0.48430301  0.59774977  0.62807951    -0.86900
Zr648      Zr  0.44339350  0.54206930  0.41802877     2.83100
Zr649      Zr  0.53866950  0.48121727  0.58006933     2.83500
Zr650      Zr  0.40904201  0.46245564  0.53159727     2.84100
Zr651      Zr  0.57426253  0.56018510  0.46571353     2.83400
Zr652      Zr  0.46350508  0.59234826  0.54493679     2.84200
O653        O  0.54316693  0.56180454  0.54672414    -1.07400
O654        O  0.41210155  0.54163868  0.49744078    -1.06900
C655        C  0.40812106  0.66250997  0.46614952     1.07700
C656        C  0.50728218  0.57605341  0.66181754     1.10300
C657        C  0.32553678  0.49839375  0.43750462     1.07900
C658        C  0.52503408  0.59845020  0.34469981     1.08200
C659        C  0.65689413  0.52488626  0.56155867     1.07800
C660        C  0.45624207  0.42339713  0.65228002     1.07400
C661        C  0.34036121  0.54322317  0.58489402     1.07800
C662        C  0.56168044  0.67666991  0.50790301     1.07300
H663        H  0.44619821  0.51485220  0.61126414     0.34000
O664        O  0.46021533  0.51362526  0.57891975    -1.28500
H665        H  0.49819463  0.62393346  0.45104494     0.34000
O666        O  0.49610028  0.59158777  0.46539840    -1.29900
O667        O  0.10766629  0.92866225  0.06730688    -0.85400
O668        O  0.01468672  0.04848343  0.84353728    -0.85500
O669        O  0.05699700  0.89253310  0.91867585    -0.87200
O670        O  0.14599790  0.03915321  0.96473847    -0.86000
O671        O  0.12272175  0.10162930  0.01433189    -0.85500
O672        O  0.97729113  0.86189734  0.92661883    -0.86900
O673        O  0.07628899  0.00179436  0.87057585    -0.85400
O674        O  0.13670564  0.94303566  0.98936107    -0.85000
Zr675      Zr  0.07065048  0.98099588  0.95360178     2.84300
O676        O  0.04041832  0.06078164  0.95155436    -1.07000
O677        O  0.01993155  0.92982306  0.00135663    -1.07700
C678        C  0.14160207  0.92697489  0.03265026     1.07700
C679        C  0.05483237  0.02501301  0.83689481     1.07700
C680        C  0.02159177  0.85778267  0.91343377     1.10700
C681        C  0.15472820  0.07983194  0.98943331     1.08400
H682        H  0.99335218  0.96400060  0.88709377     0.34000
O683        O  0.99206144  0.97794252  0.91945703    -1.27900
H684        H  0.10224335  0.01619647  0.04725371     0.33700
O685        O  0.06984942  0.01382801  0.03303046    -1.29600
O686        O  0.87285423  0.08857298  0.93249828    -0.85400
O687        O  0.96622584  0.97107345  0.15619236    -0.86900
O688        O  0.90505140  0.94014217  0.87910938    -0.85400
O689        O  0.02843035  0.16656507  0.97698984    -0.85500
O690        O  0.07304094  0.07907340  0.12014300    -0.85200
O691        O  0.95156655  0.85158630  0.02110766    -0.85000
O692        O  0.83382606  0.97962848  0.03419165    -0.85400
O693        O  0.92290697  0.12523316  0.08251983    -0.84800
O694        O  0.85656390  0.91773529  0.98368891    -0.85900
O695        O  0.00202645  0.15677521  0.07224789    -0.85100
O696        O  0.91895342  0.01937085  0.85172608    -0.85500
O697        O  0.00263667  0.87592966  0.08427960    -0.85200
O698        O  0.06078478  0.99967254  0.14760624    -0.84800
O699        O  0.97812317  0.14187926  0.91330174    -0.85200
O700        O  0.84371544  0.07511971  0.01054404    -0.85500
O701        O  0.90553299  0.01891756  0.12940547    -0.86900
Zr702      Zr  0.95989819  0.05653794  0.91844429     2.83100
Zr703      Zr  0.02040185  0.96131608  0.08082124     2.83500
Zr704      Zr  0.94091901  0.92662549  0.96664251     2.84100
Zr705      Zr  0.03844064  0.09194451  0.03236929     2.83400
Zr706      Zr  0.90958448  0.03711683  0.04611228     2.84200
O707        O  0.98819987  0.03974223  0.07994940    -1.07400
O708        O  0.90972040  0.00478374  0.96657788    -1.06900
C709        C  0.83910914  0.09097234  0.96716697     1.07700
C710        C  0.92675471  0.99563753  0.16305563     1.10300
C711        C  0.90228225  0.97540629  0.84581738     1.07900
C712        C  0.00358525  0.17471193  0.93686435     1.08200
C713        C  0.07656740  0.04401359  0.15343997     1.07800
C714        C  0.97685473  0.84325563  0.06087989     1.07400
C715        C  0.82474331  0.93940438  0.00887271     1.07800
C716        C  0.95806899  0.16042768  0.08671795     1.07300
H717        H  0.91847014  0.93591191  0.06798427     0.34000
O718        O  0.93958687  0.95716719  0.04790498    -1.28500
H719        H  0.94556287  0.11984241  0.99658974     0.34000
O720        O  0.95943724  0.08809271  0.99765865    -1.29900
C721        C  0.04223014  0.35515671  0.91883353    -0.12200
C722        C  0.06644443  0.39242773  0.92279344    -0.13700
C723        C  0.04073086  0.32757010  0.09381251    -0.12200
C724        C  0.06697387  0.36480466  0.08512175    -0.13700
C725        C  0.07299014  0.69563313  0.09369232    -0.12200
C726        C  0.09744452  0.65949676  0.09162519    -0.13700
C727        C  0.07961175  0.68697726  0.90153528    -0.12200
C728        C  0.10007278  0.65176040  0.91553951    -0.13700
C729        C  0.40489348  0.40548656  0.83019503    -0.12200
C730        C  0.38463221  0.41647883  0.86748093    -0.13700
C731        C  0.40799553  0.58057139  0.86887134    -0.12200
C732        C  0.43030610  0.58380291  0.83040384    -0.13700
C733        C  0.40920708  0.58778766  0.15364906    -0.12200
C734        C  0.43630869  0.59992240  0.18814326    -0.13700
C735        C  0.38466127  0.40938327  0.13662632    -0.12200
C736        C  0.41078629  0.40822786  0.17123472    -0.13700
C737        C  0.54963070  0.43731946  0.16590686    -0.12200
C738        C  0.57112104  0.43931262  0.12700770    -0.13700
C739        C  0.59459634  0.60371071  0.12899425    -0.12200
C740        C  0.57474430  0.61548751  0.16624116    -0.13700
C741        C  0.57028347  0.61523036  0.82755456    -0.12200
C742        C  0.59662603  0.61306852  0.86193835    -0.13700
C743        C  0.57123339  0.43338368  0.84299052    -0.12200
C744        C  0.54410498  0.42165545  0.80846743    -0.13700
C745        C  0.87872262  0.36573881  0.08287929    -0.12200
C746        C  0.89988143  0.33103276  0.09723140    -0.13700
C747        C  0.88163085  0.35800185  0.90637979    -0.12200
C748        C  0.90612077  0.32184219  0.90399943    -0.13700
C749        C  0.91423420  0.65292943  0.91373125    -0.12200
C750        C  0.94018604  0.69026015  0.90481317    -0.13700
C751        C  0.91291487  0.62548243  0.07685877    -0.12200
C752        C  0.93690038  0.66289230  0.08078301    -0.13700
C753        C  0.24086610  0.49697142  0.23455434    -0.12200
C754        C  0.24388420  0.49934426  0.27796592    -0.13700
C755        C  0.74068862  0.49301842  0.21443980    -0.12200
C756        C  0.73882334  0.48926493  0.25803059    -0.13700
C757        C  0.24309443  0.52569908  0.78274319    -0.12200
C758        C  0.24614052  0.53033379  0.73918898    -0.13700
C759        C  0.73963337  0.52168981  0.72016506    -0.12200
C760        C  0.74227740  0.52341126  0.76355734    -0.13700
C761        C  0.97157066  0.25559399  0.24009906    -0.12200
C762        C  0.97625358  0.25845461  0.28360483    -0.13700
C763        C  0.00286493  0.25789267  0.77828027    -0.12200
C764        C  0.00525007  0.26157521  0.73497575    -0.13700
C765        C  0.84790888  0.39987514  0.41701908    -0.12200
C766        C  0.81290275  0.42061647  0.40282713    -0.13700
C767        C  0.84123442  0.40357610  0.59145817    -0.12200
C768        C  0.80479562  0.42765196  0.59355188    -0.13700
C769        C  0.17352891  0.46125696  0.59297898    -0.12200
C770        C  0.13629783  0.43511266  0.58425354    -0.13700
C771        C  0.14559992  0.45846027  0.41782788    -0.12200
C772        C  0.10838990  0.43419722  0.42182639    -0.13700
C773        C  0.09515096  0.09296045  0.67407057    -0.12200
C774        C  0.09360351  0.11907312  0.63945464    -0.13700
C775        C  0.91360118  0.09239432  0.65526589    -0.12200
C776        C  0.90147803  0.06509733  0.68969895    -0.13700
C777        C  0.91899787  0.06976042  0.33335643    -0.12200
C778        C  0.92176072  0.09179080  0.37192910    -0.13700
C779        C  0.08611105  0.11582952  0.36904736    -0.12200
C780        C  0.09712914  0.09576529  0.33157212    -0.13700
C781        C  0.97871668  0.76148912  0.22019139    -0.12200
C782        C  0.97727174  0.75909075  0.26366046    -0.13700
C783        C  0.00568801  0.76182038  0.71548592    -0.12200
C784        C  0.00976782  0.76400668  0.75908870    -0.13700
C785        C  0.14197622  0.61934073  0.40658454    -0.12200
C786        C  0.17814951  0.59488915  0.40403261    -0.13700
C787        C  0.13514761  0.62287982  0.58271070    -0.12200
C788        C  0.17016910  0.60193193  0.59659968    -0.13700
C789        C  0.83738058  0.56317771  0.58020095    -0.12200
C790        C  0.87467552  0.58734576  0.57646195    -0.13700
C791        C  0.81116019  0.56058617  0.40343500    -0.12200
C792        C  0.84844732  0.58644134  0.41261970    -0.13700
C793        C  0.06647201  0.93006399  0.34423464    -0.12200
C794        C  0.07846839  0.95709350  0.30973511    -0.13700
C795        C  0.88785744  0.90323734  0.36037490    -0.12200
C796        C  0.88601361  0.92992306  0.32623008    -0.13700
C797        C  0.89607204  0.90549873  0.63053785    -0.12200
C798        C  0.88458784  0.92582613  0.66764985    -0.13700
C799        C  0.05980862  0.93071958  0.62736576    -0.12200
C800        C  0.06278943  0.95303444  0.66579232    -0.13700
C801        C  0.25683815  0.75530043  0.47132317    -0.12200
C802        C  0.21485423  0.76500343  0.47413730    -0.13700
C803        C  0.26090565  0.26097974  0.49734757    -0.12200
C804        C  0.21749684  0.26487456  0.49676762    -0.13700
C805        C  0.74884934  0.24398504  0.96800590    -0.12200
C806        C  0.73850854  0.28569059  0.97137483    -0.13700
C807        C  0.24222688  0.24094464  0.99468379    -0.12200
C808        C  0.23860688  0.28439274  0.99490536    -0.13700
C809        C  0.72222903  0.76445592  0.50141204    -0.12200
C810        C  0.76547334  0.75971993  0.50192989    -0.13700
C811        C  0.73720750  0.77827280  0.00193542    -0.12200
C812        C  0.74139587  0.73485454  0.00241907    -0.13700
C813        C  0.23598710  0.77667981  0.02790557    -0.12200
C814        C  0.24521816  0.73457538  0.02459641    -0.13700
C815        C  0.23149426  0.02461982  0.24370882    -0.12200
C816        C  0.27511171  0.02042485  0.24645964    -0.13700
C817        C  0.77282486  0.03135066  0.24742899    -0.12200
C818        C  0.72951995  0.03394466  0.24962384    -0.13700
C819        C  0.40607429  0.84180946  0.42242204    -0.12200
C820        C  0.41648637  0.88026313  0.40262209    -0.13700
C821        C  0.58305851  0.88037473  0.40347354    -0.12200
C822        C  0.58798055  0.84223210  0.42576913    -0.13700
C823        C  0.40816579  0.14195012  0.40906293    -0.12200
C824        C  0.39799834  0.17557064  0.43386764    -0.13700
C825        C  0.50931093  0.25037372  0.25136098    -0.12200
C826        C  0.50719095  0.29360435  0.25357818    -0.13700
C827        C  0.50247287  0.79645669  0.24833481    -0.12200
C828        C  0.50652768  0.75280931  0.25162911    -0.13700
C829        C  0.65181329  0.10600287  0.08995838    -0.12200
C830        C  0.68699683  0.11041580  0.06194486    -0.13700
C831        C  0.65508680  0.91885955  0.06419790    -0.12200
C832        C  0.62244576  0.93108867  0.08922484    -0.08900
C833        C  0.36161738  0.93791756  0.09202630    -0.12200
C834        C  0.32276262  0.92703140  0.07312985    -0.13700
C835        C  0.31857180  0.10792854  0.07305936    -0.12200
C836        C  0.35687044  0.10339801  0.09524176    -0.13700
C837        C  0.72545741  0.26838175  0.52779894    -0.12200
C838        C  0.76747287  0.25864995  0.52488444    -0.13700
C839        C  0.58870955  0.20755279  0.43711328    -0.12200
C840        C  0.58320164  0.17235598  0.40928431    -0.13700
C841        C  0.20871870  0.99213048  0.75262281    -0.12200
C842        C  0.25191343  0.98933984  0.75091313    -0.13700
C843        C  0.74864995  0.99603426  0.75407459    -0.12200
C844        C  0.70516131  0.00060240  0.75111843    -0.13700
C845        C  0.40126301  0.14606500  0.59711897    -0.12200
C846        C  0.39566091  0.18365058  0.57412355    -0.13700
C847        C  0.56346257  0.14300819  0.59413028    -0.12200
C848        C  0.57518695  0.18117448  0.57433487    -0.13700
C849        C  0.58149478  0.84476193  0.56528519    -0.12200
C850        C  0.56925265  0.87770070  0.58977647    -0.13700
C851        C  0.39597593  0.81466822  0.56067746    -0.12200
C852        C  0.40233828  0.84933703  0.58904250    -0.13700
C853        C  0.47423805  0.26921822  0.74441781    -0.12200
C854        C  0.47848291  0.22569803  0.74772618    -0.13700
C855        C  0.47292347  0.72952766  0.74493328    -0.12200
C856        C  0.47010368  0.77270176  0.74599820    -0.13700
C857        C  0.35717884  0.08748925  0.90972653    -0.12200
C858        C  0.32411942  0.09954379  0.93420456    -0.13700
C859        C  0.32833353  0.92134701  0.90833769    -0.12200
C860        C  0.29363407  0.91509146  0.93679523    -0.13700
C861        C  0.62477105  0.91975488  0.90123493    -0.12200
C862        C  0.66246195  0.91366703  0.92386018    -0.13700
C863        C  0.62265144  0.08255541  0.90375195    -0.12200
C864        C  0.66067040  0.09377008  0.92395344    -0.13700
loop_ 
_geom_bond_atom_site_label_1 
_geom_bond_atom_site_label_2 
_geom_bond_distance 
_geom_bond_site_symmetry_2 
_ccdc_geom_bond_type 
O1          Zr37   2.434   1_545  S
O1           C12   1.290       .  A
O2          Zr36   2.436       .  S
O2           C13   1.290       .  A
O3           Zr9   2.448       .  S
O3           C14   1.293       .  A
O4           Zr9   2.450       .  S
O4           C15   1.293       .  A
O5          Zr39   2.413       .  S
O5           C15   1.286       .  A
O6          Zr38   2.413       .  S
O6           C14   1.286   1_565  A
O7           Zr9   2.424       .  S
O7           C13   1.288       .  A
O8           Zr9   2.421       .  S
O8           C12   1.288       .  A
Zr9          O10   2.308       .  S
Zr9          O11   2.311       .  S
Zr9          O19   2.351       .  S
Zr9          O17   2.350       .  S
O10         Zr36   2.305       .  S
O10         Zr39   2.294       .  S
O11         Zr37   2.304   1_545  S
O11         Zr38   2.292   1_545  S
C12         C863   1.426       .  S
C13         C847   1.427       .  S
C14         C844   1.427       .  S
C15         C854   1.428       .  S
H16          O17   0.966       .  S
O17         Zr36   2.364       .  S
O17         Zr38   2.365   1_545  S
H18          O19   0.966       .  S
O19         Zr37   2.366   1_545  S
O19         Zr39   2.365       .  S
O20         Zr36   2.470   1_565  S
O20          C43   1.298       .  A
O21         Zr37   2.473       .  S
O21          C44   1.298       .  A
O22         Zr38   2.398       .  S
O22          C45   1.283       .  A
O23         Zr39   2.442       .  S
O23          C46   1.291       .  A
O24         Zr39   2.407       .  S
O24          C47   1.285       .  A
O25         Zr38   2.438       .  S
O25          C48   1.290       .  A
O26         Zr40   2.387       .  S
O26          C49   1.282       .  A
O27         Zr40   2.388       .  S
O27          C50   1.282       .  A
O28         Zr38   2.422       .  S
O28          C49   1.288       .  A
O29         Zr39   2.424       .  S
O29          C50   1.289   1_545  A
O30         Zr36   2.398   1_565  S
O30          C45   1.283       .  A
O31         Zr37   2.469       .  S
O31          C48   1.297       .  A
O32         Zr37   2.392   1_545  S
O32          C47   1.283       .  A
O33         Zr36   2.467       .  S
O33          C46   1.297       .  A
O34         Zr40   2.490       .  S
O34          C43   1.300       .  A
O35         Zr40   2.491       .  S
O35          C44   1.301       .  A
Zr36         O42   2.319   1_545  S
Zr36         O54   2.349   1_545  S
Zr37         O41   2.321       .  S
Zr37         O52   2.345       .  S
Zr38         O42   2.309       .  S
Zr38         O52   2.360       .  S
Zr39         O41   2.310   1_545  S
Zr39         O54   2.362   1_545  S
Zr40         O41   2.305       .  S
Zr40         O42   2.306       .  S
Zr40         O54   2.377       .  S
Zr40         O52   2.378       .  S
C43         C852   1.475       .  S
C44         C859   1.477       .  S
C45         C850   1.395       .  S
C46         C845   1.456       .  S
C47         C857   1.396       .  S
C48         C861   1.455       .  S
C49         C856   1.399       .  S
C50         C842   1.401       .  S
H51          O52   0.966       .  S
H53          O54   0.966       .  S
C55          C56   1.520       .  S
C55          C61   1.524       .  S
C55          C59   1.531       .  S
C55         C837   1.442       .  S
C56          H63   1.088       .  S
C56          C57   1.354       .  D
C57          C58   1.541       .  S
C57         C848   1.434       .  S
C58          C62   1.596       .  S
C58          C60   1.565       .  S
C58          H64   1.110       .  S
C59          H65   1.089       .  S
C59          C60   1.357       .  D
C60         C839   1.480       .  S
C61          H66   1.087       .  S
C61          C62   1.364       .  D
C62         C624   1.502       .  S
O67        Zr103   2.485       .  S
O67          C78   1.301       .  A
O68        Zr102   2.480       .  S
O68          C79   1.300       .  A
O69         Zr75   2.394       .  S
O69          C80   1.283       .  A
O70         Zr75   2.390       .  S
O70          C81   1.282       .  A
O71        Zr105   2.422       .  S
O71          C81   1.288       .  A
O72        Zr104   2.425       .  S
O72          C80   1.289   1_565  A
O73         Zr75   2.496       .  S
O73          C79   1.302       .  A
O74         Zr75   2.492       .  S
O74          C78   1.301       .  A
Zr75         O76   2.377       .  S
Zr75         O77   2.374       .  S
Zr75         O85   2.318       .  S
Zr75         O83   2.314       .  S
O76        Zr102   2.351       .  S
O76        Zr105   2.363       .  S
O77        Zr103   2.350       .  S
O77        Zr104   2.359   1_545  S
C78         C840   1.474       .  S
C79         C829   1.474       .  S
C80         C818   1.406       .  S
C81         C825   1.401       .  S
H82          O83   0.961       .  S
O83        Zr102   2.337       .  S
O83        Zr104   2.309   1_545  S
H84          O85   0.961       .  S
O85        Zr103   2.335       .  S
O85        Zr105   2.309       .  S
O86        Zr102   2.444   1_565  S
O86         C109   1.292       .  A
O87        Zr103   2.444   1_565  S
O87         C110   1.292       .  A
O88        Zr104   2.409       .  S
O88         C111   1.286       .  A
O89        Zr105   2.449       .  S
O89         C112   1.292       .  A
O90        Zr105   2.414       .  S
O90         C113   1.287       .  A
O91        Zr104   2.453       .  S
O91         C114   1.293       .  A
O92        Zr106   2.452       .  S
O92         C115   1.293       .  A
O93        Zr106   2.451       .  S
O93         C116   1.293   1_565  A
O94        Zr104   2.422       .  S
O94         C115   1.287       .  A
O95        Zr105   2.418       .  S
O95         C116   1.287       .  A
O96        Zr102   2.402   1_565  S
O96         C111   1.284       .  A
O97        Zr103   2.471   1_565  S
O97         C114   1.297       .  A
O98        Zr103   2.399       .  S
O98         C113   1.284       .  A
O99        Zr102   2.480       .  S
O99         C112   1.299       .  A
O100       Zr106   2.431       .  S
O100        C109   1.290       .  A
O101       Zr106   2.428       .  S
O101        C110   1.290       .  A
Zr102       O108   2.370   1_545  S
Zr102       O120   2.316       .  S
Zr103       O107   2.369       .  S
Zr103       O118   2.321   1_545  S
Zr104       O108   2.363       .  S
Zr104       O118   2.286       .  S
Zr105       O107   2.361       .  S
Zr105       O120   2.287       .  S
Zr106       O107   2.353   1_565  S
Zr106       O108   2.349       .  S
Zr106       O120   2.306   1_565  S
Zr106       O118   2.309       .  S
C109        C833   1.428       .  S
C110        C820   1.426       .  S
C111        C832   1.398       .  S
C112        C836   1.457       .  S
C113        C823   1.399       .  S
C114        C821   1.455       .  S
C115        C827   1.433       .  S
C116        C816   1.430       .  S
H117        O118   0.961       .  S
H119        O120   0.960       .  S
C121        C122   1.532   1_554  S
C121        C127   1.523       .  S
C121        C125   1.519       .  S
C121        C813   1.442       .  S
C122        H129   1.089       .  S
C122        C123   1.357       .  D
C123        C124   1.566   1_556  S
C123        C860   1.482       .  S
C124        C128   1.599       .  S
C124        C126   1.543       .  S
C124        H130   1.110       .  S
C125        H131   1.088       .  S
C125        C126   1.354       .  D
C126        C834   1.435       .  S
C127        H132   1.087       .  S
C127        C128   1.363       .  D
C128        C678   1.503       .  S
C133        C134   1.516       .  S
C133        C139   1.508       .  S
C133        C137   1.530   1_554  S
C133        C811   1.452       .  S
C134        H141   1.088       .  S
C134        C135   1.358       .  D
C135        C136   1.532   1_554  S
C135        C831   1.406       .  S
C136        C140   1.563   1_556  S
C136        C138   1.559       .  S
C136        H142   1.110       .  S
C137        H143   1.088       .  S
C137        C138   1.366       .  D
C138        C862   1.463       .  S
C139        H144   1.088       .  S
C139        C140   1.370       .  D
C140        C715   1.498       .  S
C145        C146   1.528       .  S
C145        C151   1.504       .  S
C145        C149   1.516       .  S
C145        C809   1.447       .  S
C146        H153   1.088       .  S
C146        C147   1.364       .  D
C147        C148   1.562       .  S
C147        C822   1.464       .  S
C148        C152   1.564       .  S
C148        C150   1.530       .  S
C148        H154   1.110       .  S
C149        H155   1.088       .  S
C149        C150   1.358       .  D
C150        C849   1.403       .  S
C151        H156   1.088       .  S
C151        C152   1.369       .  D
C152        C662   1.496       .  S
C157        C158   1.529   1_556  S
C157        C163   1.506       .  S
C157        C161   1.516       .  S
C157        C807   1.449       .  S
C158        H165   1.088       .  S
C158        C159   1.364       .  D
C159        C160   1.560   1_554  S
C159        C835   1.465       .  S
C160        C164   1.564       .  S
C160        C162   1.530       .  S
C160        H166   1.110   1_556  S
C161        H167   1.088       .  S
C161        C162   1.358       .  D
C162        C858   1.404       .  S
C163        H168   1.088       .  S
C163        C164   1.369       .  D
C164        C681   1.496       .  S
C169        C170   1.519       .  S
C169        C175   1.522       .  S
C169        C173   1.530   1_556  S
C169        C805   1.437       .  S
C170        H177   1.088       .  S
C170        C171   1.354       .  D
C171        C172   1.540       .  S
C171        C864   1.432       .  S
C172        C176   1.596       .  S
C172        C174   1.566   1_556  S
C172        H178   1.110       .  S
C173        H179   1.089       .  S
C173        C174   1.355       .  D
C174        C830   1.480       .  S
C175        H180   1.087       .  S
C175        C176   1.364       .  D
C176        C709   1.498       .  S
C181        C182   1.514       .  S
C181        C187   1.506       .  S
C181        C185   1.530       .  S
C181        C803   1.449       .  S
C182        H189   1.088       .  S
C182        C183   1.356       .  D
C183        C184   1.535       .  S
C183        C824   1.407       .  S
C184        C188   1.566       .  S
C184        C186   1.560       .  S
C184        H190   1.110       .  S
C185        H191   1.088       .  S
C185        C186   1.365       .  D
C186        C846   1.463       .  S
C187        H192   1.088       .  S
C187        C188   1.370       .  D
C188        C626   1.499       .  S
C193        C194   1.531       .  S
C193        C199   1.523       .  S
C193        C197   1.518       .  S
C193        C801   1.440       .  S
C194        H201   1.089       .  S
C194        C195   1.357       .  D
C195        C196   1.565       .  S
C195        C851   1.480       .  S
C196        C200   1.596       .  S
C196        C198   1.542       .  S
C196        H202   1.110       .  S
C197        H203   1.088       .  S
C197        C198   1.353       .  D
C198        C819   1.432       .  S
C199        H204   1.087       .  S
C199        C200   1.364       .  D
C200        C655   1.499       .  S
O205       Zr241   2.421       .  S
O205        C216   1.287       .  A
O206       Zr240   2.409       .  S
O206        C217   1.286   1_455  A
O207       Zr213   2.407       .  S
O207        C218   1.285       .  A
O208       Zr213   2.456       .  S
O208        C219   1.293       .  A
O209       Zr243   2.526       .  S
O209        C219   1.308       .  A
O210       Zr242   2.403       .  S
O210        C218   1.285       .  A
O211       Zr213   2.414       .  S
O211        C217   1.286       .  A
O212       Zr213   2.413       .  S
O212        C216   1.285       .  A
Zr213       O214   2.360       .  S
Zr213       O215   2.353       .  S
Zr213       O223   2.299       .  S
Zr213       O221   2.327       .  S
O214       Zr240   2.373   1_655  S
O214       Zr243   2.349       .  S
O215       Zr241   2.350       .  S
O215       Zr242   2.358       .  S
C216        C810   1.413       .  S
C217        C782   1.408       .  S
C218        C795   1.397       .  S
C219        C792   1.481       .  S
H220        O221   0.963       .  S
O221       Zr240   2.309   1_655  S
O221       Zr242   2.335       .  S
H222        O223   0.962       .  S
O223       Zr241   2.314       .  S
O223       Zr243   2.332       .  S
O224       Zr240   2.397       .  S
O224        C247   1.283       .  A
O225       Zr241   2.432       .  S
O225        C248   1.289   1_655  A
O226       Zr242   2.501   1_455  S
O226        C249   1.304       .  A
O227       Zr243   2.454   1_455  S
O227        C250   1.295       .  A
O228       Zr243   2.387       .  S
O228        C251   1.280       .  A
O229       Zr242   2.473       .  S
O229        C252   1.298       .  A
O230       Zr244   2.475       .  S
O230        C253   1.298       .  A
O231       Zr244   2.419       .  S
O231        C254   1.288       .  A
O232       Zr242   2.440   1_455  S
O232        C253   1.291       .  A
O233       Zr243   2.450   1_455  S
O233        C254   1.294       .  A
O234       Zr240   2.474       .  S
O234        C249   1.298       .  A
O235       Zr241   2.421       .  S
O235        C252   1.288       .  A
O236       Zr241   2.433       .  S
O236        C251   1.291       .  A
O237       Zr240   2.482       .  S
O237        C250   1.299       .  A
O238       Zr244   2.426       .  S
O238        C247   1.289       .  A
O239       Zr244   2.419       .  S
O239        C248   1.286       .  A
Zr240       O246   2.378       .  S
Zr240       O258   2.304       .  S
Zr241       O245   2.340       .  S
Zr241       O256   2.303       .  S
Zr242       O246   2.358   1_655  S
Zr242       O256   2.327       .  S
Zr243       O245   2.372       .  S
Zr243       O258   2.324   1_655  S
Zr244       O245   2.364   1_455  S
Zr244       O246   2.360       .  S
Zr244       O258   2.311       .  S
Zr244       O256   2.287   1_455  S
C247        C802   1.408       .  S
C248        C783   1.422       .  S
C249        C793   1.477       .  S
C250        C785   1.460       .  S
C251        C790   1.403       .  S
C252        C797   1.434       .  S
C253        C799   1.450       .  S
C254        C787   1.424       .  S
H255        O256   0.960       .  S
H257        O258   0.960       .  S
O259       Zr295   2.427       .  S
O259        C270   1.290       .  A
O260       Zr294   2.413       .  S
O260        C271   1.286       .  A
O261       Zr267   2.478       .  S
O261        C272   1.298       .  A
O262       Zr267   2.481       .  S
O262        C273   1.299       .  A
O263       Zr297   2.453       .  S
O263        C273   1.295       .  A
O264       Zr296   2.509       .  S
O264        C272   1.305       .  A
O265       Zr267   2.405       .  S
O265        C271   1.285   1_655  A
O266       Zr267   2.399       .  S
O266        C270   1.283       .  A
Zr267       O268   2.376       .  S
Zr267       O269   2.377       .  S
Zr267       O277   2.302       .  S
Zr267       O275   2.309       .  S
O268       Zr294   2.362   1_655  S
O268       Zr297   2.349       .  S
O269       Zr295   2.359       .  S
O269       Zr296   2.358       .  S
C270        C838   1.410       .  S
C271        C764   1.406       .  S
C272        C775   1.483       .  S
C273        C767   1.459       .  S
H274        O275   0.963   1_455  S
O275       Zr294   2.330   1_655  S
O275       Zr296   2.334       .  S
H276        O277   0.960       .  S
O277       Zr295   2.310       .  S
O277       Zr297   2.324       .  S
O278       Zr294   2.413       .  S
O278        C301   1.285       .  A
O279       Zr295   2.418       .  S
O279        C302   1.286       .  A
O280       Zr296   2.402   1_455  S
O280        C303   1.285       .  A
O281       Zr297   2.528   1_455  S
O281        C304   1.308       .  A
O282       Zr297   2.448       .  S
O282        C305   1.293       .  A
O283       Zr296   2.440       .  S
O283        C306   1.291       .  A
O284       Zr298   2.421       .  S
O284        C307   1.288       .  A
O285       Zr298   2.435       .  S
O285        C308   1.291       .  A
O286       Zr296   2.477   1_455  S
O286        C307   1.299       .  A
O287       Zr297   2.385   1_455  S
O287        C308   1.280       .  A
O288       Zr294   2.406       .  S
O288        C303   1.285       .  A
O289       Zr295   2.473       .  S
O289        C306   1.298       .  A
O290       Zr295   2.419       .  S
O290        C305   1.288       .  A
O291       Zr294   2.460       .  S
O291        C304   1.294       .  A
O292       Zr298   2.423       .  S
O292        C301   1.288       .  A
O293       Zr298   2.434       .  S
O293        C302   1.290   1_455  A
Zr294       O300   2.353       .  S
Zr294       O312   2.297       .  S
Zr295       O299   2.365       .  S
Zr295       O310   2.288       .  S
Zr296       O300   2.360   1_655  S
Zr296       O310   2.328       .  S
Zr297       O299   2.374       .  S
Zr297       O312   2.329   1_655  S
Zr298       O299   2.340   1_455  S
Zr298       O300   2.352       .  S
Zr298       O312   2.312       .  S
Zr298       O310   2.305   1_455  S
C301        C804   1.415       .  S
C302        C762   1.422       .  S
C303        C774   1.397       .  S
C304        C770   1.482       .  S
C305        C765   1.422       .  S
C306        C778   1.448       .  S
C307        C779   1.436       .  S
C308        C772   1.403       .  S
H309        O310   0.960       .  S
H311        O312   0.962       .  S
C313        C314   1.529       .  S
C313        C319   1.505       .  S
C313        C317   1.506       .  S
C313        C759   1.439       .  S
C314        H321   1.088       .  S
C314        C315   1.362       .  D
C315        C316   1.564       .  S
C315        C768   1.467       .  S
C316        C320   1.579       .  S
C316        C318   1.539       .  S
C316        H322   1.110       .  S
C317        H323   1.089       .  S
C317        C318   1.352       .  D
C318        C789   1.408       .  S
C319        H324   1.088       .  S
C319        C320   1.371       .  D
C320        C659   1.502       .  S
C325        C326   1.525       .  S
C325        C331   1.524       .  S
C325        C329   1.534       .  S
C325        C758   1.457       .  S
C326        H333   1.087       .  S
C326        C327   1.360       .  D
C327        C328   1.538       .  S
C327        C788   1.431       .  S
C328        C332   1.591       .  S
C328        C330   1.568       .  S
C328        H334   1.110       .  S
C329        H335   1.088       .  S
C329        C330   1.362       .  D
C330        C769   1.489       .  S
C331        H336   1.087       .  S
C331        C332   1.363       .  D
C332        C661   1.501       .  S
C337        C338   1.509   1_545  S
C337        C343   1.499       .  S
C337        C341   1.516       .  S
C337        C817   1.438       .  S
C338        H345   1.089       .  S
C338        C339   1.350       .  D
C339        C340   1.540       .  S
C339        C796   1.405       .  S
C340        C344   1.569       .  S
C340        C342   1.566   1_565  S
C340        H346   1.111       .  S
C341        H347   1.089       .  S
C341        C342   1.360       .  D
C342        C777   1.454       .  S
C343        H348   1.088       .  S
C343        C344   1.381   1_545  D
C344        C710   1.509       .  S
C349        C350   1.536   1_565  S
C349        C355   1.526       .  S
C349        C353   1.526       .  S
C349        C843   1.461       .  S
C350        H357   1.088       .  S
C350        C351   1.363       .  D
C351        C352   1.567   1_545  S
C351        C776   1.489       .  S
C352        C356   1.597       .  S
C352        C354   1.544       .  S
C352        H358   1.111       .  S
C353        H359   1.087       .  S
C353        C354   1.360       .  D
C354        C798   1.441       .  S
C355        H360   1.087       .  S
C355        C356   1.365       .  D
C356        C711   1.508       .  S
C361        C362   1.535       .  S
C361        C367   1.522       .  S
C361        C365   1.524       .  S
C361        C756   1.452       .  S
C362        H369   1.088       .  S
C362        C363   1.362       .  D
C363        C364   1.568       .  S
C363        C791   1.489       .  S
C364        C368   1.592       .  S
C364        C366   1.538       .  S
C364        H370   1.110       .  S
C365        H371   1.087       .  S
C365        C366   1.360       .  D
C366        C766   1.430       .  S
C367        H372   1.087       .  S
C367        C368   1.360       .  D
C368        C627   1.502       .  S
C373        C374   1.506       .  S
C373        C379   1.507       .  S
C373        C377   1.530       .  S
C373        C754   1.442       .  S
C374        H381   1.089       .  S
C374        C375   1.352       .  D
C375        C376   1.539       .  S
C375        C771   1.408       .  S
C376        C380   1.577       .  S
C376        C378   1.563       .  S
C376        H382   1.110       .  S
C377        H383   1.088       .  S
C377        C378   1.363       .  D
C378        C786   1.468       .  S
C379        H384   1.088       .  S
C379        C380   1.372       .  D
C380        C657   1.502       .  S
C385        C386   1.526       .  S
C385        C391   1.527       .  S
C385        C389   1.535   1_545  S
C385        C815   1.464       .  S
C386        H393   1.087       .  S
C386        C387   1.360       .  D
C387        C388   1.546       .  S
C387        C780   1.444       .  S
C388        C392   1.594       .  S
C388        C390   1.563   1_545  S
C388        H394   1.111       .  S
C389        H395   1.088       .  S
C389        C390   1.363       .  D
C390        C794   1.483       .  S
C391        H396   1.087       .  S
C391        C392   1.366       .  D
C392        C713   1.509       .  S
C397        C398   1.515   1_545  S
C397        C403   1.496       .  S
C397        C401   1.508       .  S
C397        C841   1.433   1_545  S
C398        H405   1.089       .  S
C398        C399   1.359       .  D
C399        C400   1.566   1_565  S
C399        C800   1.455       .  S
C400        C404   1.570       .  S
C400        C402   1.541       .  S
C400        H406   1.111       .  S
C401        H407   1.089       .  S
C401        C402   1.350       .  D
C402        C773   1.405       .  S
C403        H408   1.088       .  S
C403        C404   1.378       .  D
C404        C679   1.506       .  S
O409       Zr445   2.417       .  S
O409        C420   1.286       .  A
O410       Zr444   2.418       .  S
O410        C421   1.286       .  A
O411       Zr417   2.419       .  S
O411        C422   1.287       .  A
O412       Zr417   2.433       .  S
O412        C423   1.291       .  A
O413       Zr447   2.389   1_554  S
O413        C423   1.281       .  A
O414       Zr446   2.469   1_554  S
O414        C422   1.297       .  A
O415       Zr417   2.428       .  S
O415        C421   1.289       .  A
O416       Zr417   2.425       .  S
O416        C420   1.288   1_554  A
Zr417       O418   2.339       .  S
Zr417       O419   2.347   1_554  S
Zr417       O427   2.311   1_554  S
Zr417       O425   2.306       .  S
O418       Zr444   2.363       .  S
O418       Zr447   2.371   1_554  S
O419       Zr445   2.350       .  S
O419       Zr446   2.358       .  S
C420        C812   1.418   1_556  S
C421        C755   1.419       .  S
C422        C739   1.432       .  S
C423        C751   1.404       .  S
H424        O425   0.961       .  S
O425       Zr444   2.290       .  S
O425       Zr446   2.329   1_554  S
H426        O427   0.962       .  S
O427       Zr445   2.298       .  S
O427       Zr447   2.332       .  S
O428       Zr444   2.429       .  S
O428        C451   1.290   1_554  A
O429       Zr445   2.413       .  S
O429        C452   1.286       .  A
O430       Zr446   2.439   1_554  S
O430        C453   1.291       .  A
O431       Zr447   2.449   1_554  S
O431        C454   1.294       .  A
O432       Zr447   2.527       .  S
O432        C455   1.309       .  A
O433       Zr446   2.398       .  S
O433        C456   1.284       .  A
O434       Zr448   2.475       .  S
O434        C457   1.298       .  A
O435       Zr448   2.483       .  S
O435        C458   1.299       .  A
O436       Zr446   2.503       .  S
O436        C457   1.304       .  A
O437       Zr447   2.457       .  S
O437        C458   1.295       .  A
O438       Zr444   2.471       .  S
O438        C453   1.297       .  A
O439       Zr445   2.410       .  S
O439        C456   1.285       .  A
O440       Zr445   2.459       .  S
O440        C455   1.294       .  A
O441       Zr444   2.418       .  S
O441        C454   1.288       .  A
O442       Zr448   2.390       .  S
O442        C451   1.282       .  A
O443       Zr448   2.403       .  S
O443        C452   1.285       .  A
Zr444       O450   2.359   1_554  S
Zr444       O462   2.308   1_554  S
Zr445       O449   2.362       .  S
Zr445       O460   2.329       .  S
Zr446       O450   2.357       .  S
Zr446       O460   2.335       .  S
Zr447       O449   2.349       .  S
Zr447       O462   2.324       .  S
Zr448       O449   2.373       .  S
Zr448       O450   2.377       .  S
Zr448       O462   2.304       .  S
Zr448       O460   2.309       .  S
C451        C806   1.406       .  S
C452        C760   1.405       .  S
C453        C738   1.447       .  S
C454        C745   1.423       .  S
C455        C749   1.482       .  S
C456        C742   1.397       .  S
C457        C743   1.479       .  S
C458        C747   1.460       .  S
H459        O460   0.963       .  S
H461        O462   0.960       .  S
O463       Zr499   2.398       .  S
O463        C474   1.283       .  A
O464       Zr498   2.437       .  S
O464        C475   1.290       .  A
O465       Zr471   2.473       .  S
O465        C476   1.297       .  A
O466       Zr471   2.414       .  S
O466        C477   1.287       .  A
O467       Zr501   2.448   1_556  S
O467        C477   1.293       .  A
O468       Zr500   2.445   1_556  S
O468        C476   1.292       .  A
O469       Zr471   2.418       .  S
O469        C475   1.286       .  A
O470       Zr471   2.429       .  S
O470        C474   1.290   1_556  A
Zr471       O472   2.366       .  S
Zr471       O473   2.359   1_556  S
Zr471       O481   2.313   1_556  S
Zr471       O479   2.286       .  S
O472       Zr498   2.338       .  S
O472       Zr501   2.372   1_556  S
O473       Zr499   2.377       .  S
O473       Zr500   2.357       .  S
C474        C814   1.410       .  S
C475        C757   1.424       .  S
C476        C731   1.451       .  S
C477        C728   1.421       .  S
H478        O479   0.960       .  S
O479       Zr498   2.303       .  S
O479       Zr500   2.326   1_556  S
H480        O481   0.961       .  S
O481       Zr499   2.305       .  S
O481       Zr501   2.329       .  S
O482       Zr498   2.419       .  S
O482        C505   1.287       .  A
O483       Zr499   2.406       .  S
O483        C506   1.285       .  A
O484       Zr500   2.470   1_556  S
O484        C507   1.297       .  A
O485       Zr501   2.386   1_556  S
O485        C508   1.280       .  A
O486       Zr501   2.451       .  S
O486        C509   1.294       .  A
O487       Zr500   2.508       .  S
O487        C510   1.305       .  A
O488       Zr502   2.408       .  S
O488        C511   1.285       .  A
O489       Zr502   2.463       .  S
O489        C512   1.295       .  A
O490       Zr500   2.400       .  S
O490        C511   1.284       .  A
O491       Zr501   2.528       .  S
O491        C512   1.308       .  A
O492       Zr498   2.419       .  S
O492        C507   1.288       .  A
O493       Zr499   2.474       .  S
O493        C510   1.298       .  A
O494       Zr499   2.482       .  S
O494        C509   1.299       .  A
O495       Zr498   2.438       .  S
O495        C508   1.292       .  A
O496       Zr502   2.420       .  S
O496        C505   1.287   1_554  A
O497       Zr502   2.419       .  S
O497        C506   1.287       .  A
Zr498       O504   2.352   1_556  S
Zr498       O516   2.312   1_556  S
Zr499       O503   2.375       .  S
Zr499       O514   2.310       .  S
Zr500       O504   2.361       .  S
Zr500       O514   2.334       .  S
Zr501       O503   2.349       .  S
Zr501       O516   2.330       .  S
Zr502       O503   2.363       .  S
Zr502       O504   2.353       .  S
Zr502       O516   2.299       .  S
Zr502       O514   2.330       .  S
C505        C808   1.416       .  S
C506        C753   1.409       .  S
C507        C730   1.432       .  S
C508        C722   1.404       .  S
C509        C726   1.457       .  S
C510        C733   1.481       .  S
C511        C735   1.396       .  S
C512        C724   1.484       .  S
H513        O514   0.963       .  S
H515        O516   0.962       .  S
C517        C518   1.524       .  S
C517        C523   1.523       .  S
C517        C521   1.535   1_455  S
C517        C784   1.455       .  S
C518        H525   1.088       .  S
C518        C519   1.360       .  D
C519        C520   1.538       .  S
C519        C727   1.429       .  S
C520        C524   1.592       .  S
C520        C522   1.568   1_455  S
C520        H526   1.110       .  S
C521        H527   1.088       .  S
C521        C522   1.362       .  D
C522        C750   1.490       .  S
C523        H528   1.087       .  S
C523        C524   1.362       .  D
C524        C680   1.504       .  S
C529        C530   1.530       .  S
C529        C535   1.506   1_655  S
C529        C533   1.506   1_655  S
C529        C763   1.439   1_655  S
C530        H537   1.088       .  S
C530        C531   1.363       .  D
C531        C532   1.564       .  S
C531        C748   1.468       .  S
C532        C536   1.579   1_655  S
C532        C534   1.539   1_655  S
C532        H538   1.110       .  S
C533        H539   1.089       .  S
C533        C534   1.351       .  D
C534        C721   1.410       .  S
C535        H540   1.088       .  S
C535        C536   1.371       .  D
C536        C712   1.501       .  S
C541        C542   1.517       .  S
C541        C547   1.496       .  S
C541        C545   1.508       .  S
C541        C855   1.432       .  S
C542        H549   1.089       .  S
C542        C543   1.360       .  D
C543        C544   1.566       .  S
C543        C732   1.456       .  S
C544        C548   1.572       .  S
C544        C546   1.542       .  S
C544        H550   1.111       .  S
C545        H551   1.089       .  S
C545        C546   1.350       .  D
C546        C741   1.406       .  S
C547        H552   1.088       .  S
C547        C548   1.377       .  D
C548        C656   1.508       .  S
C553        C554   1.525       .  S
C553        C559   1.529       .  S
C553        C557   1.536       .  S
C553        C828   1.467       .  S
C554        H561   1.087       .  S
C554        C555   1.360       .  D
C555        C556   1.544       .  S
C555        C740   1.440       .  S
C556        C560   1.595       .  S
C556        C558   1.565       .  S
C556        H562   1.111       .  S
C557        H563   1.088       .  S
C557        C558   1.363       .  D
C558        C734   1.487       .  S
C559        H564   1.087       .  S
C559        C560   1.367       .  D
C560        C658   1.513       .  S
C565        C566   1.534   1_655  S
C565        C571   1.523       .  S
C565        C569   1.525       .  S
C565        C761   1.454       .  S
C566        H573   1.088       .  S
C566        C567   1.361       .  D
C567        C568   1.570   1_455  S
C567        C723   1.491       .  S
C568        C572   1.594       .  S
C568        C570   1.539       .  S
C568        H574   1.110       .  S
C569        H575   1.087       .  S
C569        C570   1.360       .  D
C570        C746   1.431       .  S
C571        H576   1.087       .  S
C571        C572   1.362       .  D
C572        C716   1.504       .  S
C577        C578   1.507       .  S
C577        C583   1.506       .  S
C577        C581   1.529   1_655  S
C577        C781   1.441       .  S
C578        H585   1.089       .  S
C578        C579   1.352       .  D
C579        C580   1.540       .  S
C579        C752   1.410       .  S
C580        C584   1.578       .  S
C580        C582   1.563   1_655  S
C580        H586   1.110       .  S
C581        H587   1.088       .  S
C581        C582   1.362       .  D
C582        C725   1.465       .  S
C583        H588   1.088       .  S
C583        C584   1.372       .  D
C584        C714   1.502       .  S
C589        C590   1.535       .  S
C589        C595   1.527       .  S
C589        C593   1.524       .  S
C589        C853   1.462       .  S
C590        H597   1.088       .  S
C590        C591   1.362       .  D
C591        C592   1.564       .  S
C591        C744   1.484       .  S
C592        C596   1.594       .  S
C592        C594   1.545       .  S
C592        H598   1.111       .  S
C593        H599   1.088       .  S
C593        C594   1.359       .  D
C594        C729   1.440       .  S
C595        H600   1.087       .  S
C595        C596   1.365       .  D
C596        C660   1.508       .  S
C601        C602   1.508       .  S
C601        C607   1.496       .  S
C601        C605   1.517       .  S
C601        C826   1.433       .  S
C602        H609   1.089       .  S
C602        C603   1.350       .  D
C603        C604   1.541       .  S
C603        C736   1.404       .  S
C604        C608   1.570       .  S
C604        C606   1.564       .  S
C604        H610   1.111       .  S
C605        H611   1.089       .  S
C605        C606   1.360       .  D
C606        C737   1.453       .  S
C607        H612   1.088       .  S
C607        C608   1.378       .  D
C608        C625   1.504       .  S
O613       Zr649   2.605       .  S
O613        C624   1.326       .  A
O614       Zr648   2.547       .  S
O614        C625   1.309       .  A
O615       Zr621   2.551       .  S
O615        C626   1.311       .  A
O616       Zr621   2.608       .  S
O616        C627   1.326       .  A
O617       Zr651   2.344       .  S
O617        C627   1.272       .  A
O618       Zr650   2.351       .  S
O618        C626   1.278       .  A
O619       Zr621   2.337       .  S
O619        C625   1.275       .  A
O620       Zr621   2.336       .  S
O620        C624   1.271       .  A
Zr621       O622   2.334       .  S
Zr621       O623   2.348       .  S
Zr621       O631   2.311       .  S
Zr621       O629   2.371       .  S
O622       Zr648   2.357       .  S
O622       Zr651   2.322       .  S
O623       Zr649   2.321       .  S
O623       Zr650   2.336       .  S
H628        O629   0.967       .  S
O629       Zr648   2.376       .  S
O629       Zr650   2.371       .  S
H630        O631   0.964       .  S
O631       Zr649   2.337       .  S
O631       Zr651   2.355       .  S
O632       Zr648   2.603       .  S
O632        C655   1.326       .  A
O633       Zr649   2.553       .  S
O633        C656   1.310       .  A
O634       Zr650   2.560       .  S
O634        C657   1.314       .  A
O635       Zr651   2.619       .  S
O635        C658   1.329       .  A
O636       Zr651   2.568       .  S
O636        C659   1.315       .  A
O637       Zr650   2.608       .  S
O637        C660   1.327       .  A
O638       Zr652   2.602       .  S
O638        C661   1.326       .  A
O639       Zr652   2.552       .  S
O639        C662   1.311       .  A
O640       Zr650   2.341       .  S
O640        C661   1.272       .  A
O641       Zr651   2.352       .  S
O641        C662   1.278       .  A
O642       Zr648   2.355       .  S
O642        C657   1.278       .  A
O643       Zr649   2.354       .  S
O643        C660   1.274       .  A
O644       Zr649   2.358       .  S
O644        C659   1.280       .  A
O645       Zr648   2.346       .  S
O645        C658   1.273       .  A
O646       Zr652   2.338       .  S
O646        C655   1.271       .  A
O647       Zr652   2.345       .  S
O647        C656   1.277       .  A
Zr648       O654   2.333       .  S
Zr648       O666   2.319       .  S
Zr649       O653   2.377       .  S
Zr649       O664   2.358       .  S
Zr650       O654   2.351       .  S
Zr650       O664   2.319       .  S
Zr651       O653   2.373       .  S
Zr651       O666   2.339       .  S
Zr652       O653   2.368       .  S
Zr652       O654   2.318       .  S
Zr652       O666   2.350       .  S
Zr652       O664   2.337       .  S
H663        O664   0.965       .  S
H665        O666   0.965       .  S
O667       Zr703   2.611       .  S
O667        C678   1.327       .  A
O668       Zr702   2.552   1_455  S
O668        C679   1.310       .  A
O669       Zr675   2.606       .  S
O669        C680   1.327       .  A
O670       Zr675   2.551   1_545  S
O670        C681   1.311       .  A
O671       Zr705   2.354       .  S
O671        C681   1.278   1_554  A
O672       Zr704   2.342       .  S
O672        C680   1.272   1_655  A
O673       Zr675   2.342   1_545  S
O673        C679   1.276       .  A
O674       Zr675   2.338       .  S
O674        C678   1.271   1_556  A
Zr675       O676   2.368   1_565  S
Zr675       O677   2.317   1_556  S
Zr675       O685   2.350   1_566  S
Zr675       O683   2.336   1_455  S
O676       Zr702   2.373   1_455  S
O676       Zr705   2.370   1_556  S
O677       Zr703   2.337       .  S
O677       Zr704   2.353   1_454  S
H682        O683   0.965       .  S
O683       Zr702   2.359   1_565  S
O683       Zr704   2.317       .  S
H684        O685   0.965       .  S
O685       Zr703   2.320   1_545  S
O685       Zr705   2.338       .  S
O686       Zr702   2.601       .  S
O686        C709   1.326       .  A
O687       Zr703   2.558   1_655  S
O687        C710   1.311       .  A
O688       Zr704   2.618       .  S
O688        C711   1.329       .  A
O689       Zr705   2.562   1_556  S
O689        C712   1.314       .  A
O690       Zr705   2.608       .  S
O690        C713   1.327       .  A
O691       Zr704   2.559   1_554  S
O691        C714   1.313       .  A
O692       Zr706   2.551   1_565  S
O692        C715   1.311       .  A
O693       Zr706   2.612       .  S
O693        C716   1.328       .  A
O694       Zr704   2.349       .  S
O694        C715   1.277   1_556  A
O695       Zr705   2.343       .  S
O695        C716   1.272   1_455  A
O696       Zr702   2.343       .  S
O696        C711   1.272   1_545  A
O697       Zr703   2.358       .  S
O697        C714   1.279   1_455  A
O698       Zr703   2.351       .  S
O698        C713   1.274   1_565  A
O699       Zr702   2.361       .  S
O699        C712   1.280   1_655  A
O700       Zr706   2.332       .  S
O700        C709   1.270   1_554  A
O701       Zr706   2.331       .  S
O701        C710   1.273   1_545  A
Zr702       O708   2.324       .  S
Zr702       O720   2.332       .  S
Zr703       O707   2.355   1_465  S
Zr703       O718   2.379   1_455  S
Zr704       O708   2.337   1_565  S
Zr704       O718   2.375   1_556  S
Zr705       O707   2.323   1_455  S
Zr705       O720   2.352   1_454  S
Zr706       O707   2.333       .  S
Zr706       O708   2.348   1_554  S
Zr706       O720   2.312   1_554  S
Zr706       O718   2.370   1_545  S
H717        O718   0.967       .  S
H719        O720   0.964       .  S
C721        C722   1.189       .  T
C723        C724   1.236       .  T
C725        C726   1.220       .  T
C727        C728   1.198       .  T
C729        C730   1.205       .  T
C731        C732   1.216       .  T
C733        C734   1.233       .  T
C735        C736   1.186       .  T
C737        C738   1.214       .  T
C739        C740   1.205       .  T
C741        C742   1.186       .  T
C743        C744   1.232       .  T
C745        C746   1.200       .  T
C747        C748   1.222       .  T
C749        C750   1.235       .  T
C751        C752   1.189       .  T
C753        C754   1.191       .  T
C755        C756   1.197       .  T
C757        C758   1.200       .  T
C759        C760   1.189       .  T
C761        C762   1.198       .  T
C763        C764   1.190       .  T
C765        C766   1.199       .  T
C767        C768   1.221       .  T
C769        C770   1.235       .  T
C771        C772   1.188       .  T
C773        C774   1.186       .  T
C775        C776   1.234       .  T
C777        C778   1.215       .  T
C779        C780   1.207       .  T
C781        C782   1.191       .  T
C783        C784   1.198       .  T
C785        C786   1.221       .  T
C787        C788   1.200       .  T
C789        C790   1.188       .  T
C791        C792   1.234       .  T
C793        C794   1.231       .  T
C795        C796   1.186       .  T
C797        C798   1.206       .  T
C799        C800   1.215       .  T
C801        C802   1.191       .  T
C803        C804   1.195       .  T
C805        C806   1.190       .  T
C807        C808   1.195       .  T
C809        C810   1.194       .  T
C811        C812   1.196       .  T
C813        C814   1.192       .  T
C815        C816   1.204       .  T
C817        C818   1.189       .  T
C819        C820   1.201       .  T
C821        C822   1.219       .  T
C823        C824   1.186       .  T
C825        C826   1.186       .  T
C827        C828   1.205       .  T
C829        C830   1.229       .  T
C831        C832   1.185       .  T
C833        C834   1.203       .  T
C835        C836   1.220       .  T
C837        C838   1.193       .  T
C839        C840   1.229       .  T
C841        C842   1.186       .  T
C843        C844   1.202   1_565  T
C845        C846   1.219       .  T
C847        C848   1.202       .  T
C849        C850   1.183       .  T
C851        C852   1.229       .  T
C853        C854   1.203       .  T
C855        C856   1.185       .  T
C857        C858   1.184       .  T
C859        C860   1.231       .  T
C861        C862   1.218       .  T
C863        C864   1.201       .  T
