geometry optimzed in LAMMPS
_audit_creation_date              2020-11-30 
_audit_creation_method            'lammps2cif' 
_symmetry_space_group_name_H-M    'P1' 
_symmetry_Int_Tables_number       1 
_symmetry_cell_setting            triclinic 
loop_ 
_symmetry_equiv_pos_as_xyz 
  x,y,z 
_cell_length_a                    34.41737906 
_cell_length_b                    34.43628540750151 
_cell_length_c                    34.35598823731884 
_cell_angle_alpha                 89.82579614592835 
_cell_angle_beta                  90.00282649936653 
_cell_angle_gamma                 90.85206268376125 
loop_ 
_atom_site_label 
_atom_site_type_symbol 
_atom_site_fract_x 
_atom_site_fract_y 
_atom_site_fract_z 
_atom_site_charge 
O1          O  0.53610369  0.05273208  0.85714493    -0.87200
O2          O  0.53013858  0.05504837  0.63502692    -0.87400
O3          O  0.60925380  0.04225310  0.73587483    -0.89100
O4          O  0.52168606  0.13072864  0.75455645    -0.87800
O5          O  0.45526581  0.13059352  0.75669634    -0.87400
O6          O  0.60794043  0.97567415  0.73646563    -0.88800
O7          O  0.55908627  0.09053034  0.68348509    -0.87300
O8          O  0.57131582  0.08326085  0.80871538    -0.86800
Zr9        Zr  0.54294174  0.06389922  0.74672896     2.84300
O10         O  0.48749625  0.06469312  0.70765334    -1.08800
O11         O  0.54284284  0.00884412  0.78650532    -1.09600
C12         C  0.56348848  0.07565615  0.84472664     1.05900
C13         C  0.55291000  0.08257725  0.64739054     1.05800
C14         C  0.62540747  0.00884498  0.73164815     1.08800
C15         C  0.48881978  0.14779892  0.75913732     1.06600
H16         H  0.56299048  0.00879910  0.68958233     0.32100
O17         O  0.54121799  0.00869405  0.70724721    -1.29800
H18         H  0.48926588  0.08626046  0.80427548     0.31800
O19         O  0.48856683  0.06399596  0.78731151    -1.31500
O20         O  0.44536631  0.96207685  0.63488922    -0.87200
O21         O  0.44080684  0.96863954  0.86069815    -0.88700
O22         O  0.55964021  0.92973194  0.68342183    -0.87300
O23         O  0.41616894  0.09282745  0.68587931    -0.87400
O24         O  0.40845484  0.08566570  0.81034836    -0.87100
O25         O  0.57168389  0.93822697  0.80990063    -0.86900
O26         O  0.45143251  0.88552346  0.75479874    -0.87200
O27         O  0.36382828  0.97370316  0.74310075    -0.86700
O28         O  0.51801449  0.88606301  0.75349860    -0.87800
O29         O  0.36649709  0.04023190  0.74584090    -0.86900
O30         O  0.52976450  0.96423389  0.63534211    -0.87300
O31         O  0.53650847  0.96766510  0.85789793    -0.87000
O32         O  0.44350102  0.05602448  0.85813290    -0.86700
O33         O  0.44516014  0.05837624  0.63738138    -0.87100
O34         O  0.41657360  0.92507087  0.68264116    -0.87400
O35         O  0.40495585  0.93650959  0.81390646    -0.88700
Zr36       Zr  0.48608913  0.00934126  0.66814262     2.83100
Zr37       Zr  0.48806938  0.00943503  0.82700530     2.83500
Zr38       Zr  0.54114689  0.95349574  0.74740610     2.84100
Zr39       Zr  0.43313930  0.06364394  0.74813587     2.83400
Zr40       Zr  0.43072493  0.95263841  0.74825137     2.84200
O41         O  0.43259072  0.00829977  0.78743576    -1.09300
O42         O  0.48565792  0.95387458  0.70833328    -1.08800
C43         C  0.42457950  0.93275256  0.64630767     1.05800
C44         C  0.41308781  0.94549284  0.84976656     1.08500
C45         C  0.55330668  0.93772112  0.64729177     1.06000
C46         C  0.42382720  0.08649540  0.64970245     1.06400
C47         C  0.41676145  0.07966878  0.84640940     1.06000
C48         C  0.56483293  0.94632466  0.84597539     1.05500
C49         C  0.48460480  0.86849494  0.75659840     1.05900
C50         C  0.34815147  0.00753130  0.74205468     1.05500
H51         H  0.48643301  0.93107837  0.80524798     0.32100
O52         O  0.48637893  0.95339321  0.78815915    -1.30400
H53         H  0.40814752  0.00858439  0.69135538     0.32200
O54         O  0.43075078  0.00838608  0.70800686    -1.31800
C55         C  0.69379715  0.20451181  0.50364764     0.85700
C56         C  0.67454311  0.18054653  0.53610599    -0.54500
C57         C  0.63470631  0.18091277  0.53584453     0.08700
C58         C  0.61779578  0.20562085  0.50240530     0.19600
C59         C  0.67571122  0.18758913  0.46613069    -0.55200
C60         C  0.63602617  0.18748098  0.46565723     0.08800
C61         C  0.67681925  0.24480577  0.50719583    -0.54700
C62         C  0.63752972  0.24611481  0.50666169     0.09300
H63         H  0.69128268  0.16361713  0.55668894     0.13900
H64         H  0.58564950  0.20699173  0.50170776    -0.00400
H65         H  0.69164842  0.17327322  0.44328968     0.14200
H66         H  0.69492985  0.27064361  0.51105155     0.14000
O67         O  0.57040621  0.09978528  0.31148510    -0.87200
O68         O  0.42388545  0.93131464  0.31129405    -0.87400
O69         O  0.45308592  0.05945885  0.35824970    -0.89100
O70         O  0.53823264  0.96795150  0.35940744    -0.87800
O71         O  0.57120208  0.93575083  0.31137693    -0.87400
O72         O  0.42668793  0.09810414  0.31073385    -0.88800
O73         O  0.45267082  0.96897840  0.35857871    -0.87300
O74         O  0.54118999  0.06226458  0.35898946    -0.86800
Zr75       Zr  0.49775674  0.01522462  0.32702625     2.84300
O76         O  0.49750699  0.95957950  0.28799379    -1.08800
O77         O  0.49798259  0.07090047  0.28749916    -1.09600
C78         C  0.56308971  0.09095437  0.34747263     1.05900
C79         C  0.43018796  0.94080162  0.34703005     1.05800
C80         C  0.43221990  0.08799347  0.34641397     1.08800
C81         C  0.56199890  0.94207903  0.34725243     1.06600
H82         H  0.42089941  0.01415343  0.30564787     0.32100
O83         O  0.44272429  0.01439522  0.28804318    -1.29800
H84         H  0.57557287  0.01701448  0.30418820     0.31800
O85         O  0.55302517  0.01696598  0.28746158    -1.31500
O86         O  0.41340443  0.94336026  0.18611311    -0.87200
O87         O  0.58080265  0.08901272  0.18334256    -0.88700
O88         O  0.37633772  0.04662528  0.25854754    -0.87300
O89         O  0.53158899  0.89378917  0.24119694    -0.87400
O90         O  0.61846801  0.98599854  0.24982365    -0.87100
O91         O  0.46365944  0.13740365  0.24094234    -0.86900
O92         O  0.45055627  0.05873525  0.13747524    -0.87200
O93         O  0.53818492  0.97082236  0.13738220    -0.86700
O94         O  0.41380113  0.08636620  0.18553513    -0.87800
O95         O  0.57673412  0.94347625  0.18447900    -0.86900
O96         O  0.37507512  0.97997055  0.25917878    -0.87300
O97         O  0.53033778  0.13960522  0.24015208    -0.87000
O98         O  0.62016264  0.05256214  0.25319929    -0.86700
O99         O  0.46497087  0.89168450  0.24161936    -0.87100
O100        O  0.44656636  0.97622552  0.13829953    -0.87400
O101        O  0.54515529  0.05648368  0.13739102    -0.88700
Zr102      Zr  0.44199818  0.95871376  0.24888357     2.83100
Zr103      Zr  0.55300591  0.07286578  0.24756369     2.83500
Zr104      Zr  0.44260192  0.06996777  0.24833412     2.84100
Zr105      Zr  0.55207792  0.96158591  0.24794978     2.83400
Zr106      Zr  0.49619040  0.01610744  0.16987843     2.84200
O107        O  0.55195052  0.01711164  0.20879096    -1.09300
O108        O  0.44137094  0.01443409  0.20980346    -1.08800
C109        C  0.41920815  0.95306277  0.15021296     1.05800
C110        C  0.57328267  0.07945638  0.14758221     1.08500
C111        C  0.35885944  0.01346015  0.26308152     1.06000
C112        C  0.49861760  0.87554243  0.23829041     1.06400
C113        C  0.63634860  0.01897211  0.25356818     1.06000
C114        C  0.49661677  0.15554114  0.23734230     1.05500
C115        C  0.42210445  0.07946643  0.14955556     1.05900
C116        C  0.56626199  0.94936125  0.14894105     1.05500
H117        H  0.49706738  0.09401967  0.19060678     0.32100
O118        O  0.49734910  0.07192602  0.20795868    -1.30400
H119        H  0.49631149  0.93793635  0.19146958     0.32200
O120        O  0.49662104  0.96020012  0.20846842    -1.31800
C121        C  0.29958841  0.81465152  0.00572492     0.85700
C122        C  0.31882555  0.83388508  0.96980900    -0.54500
C123        C  0.31763508  0.87354023  0.96958893     0.08700
C124        C  0.29664007  0.89079558  0.00534803     0.19600
C125        C  0.32118014  0.83410491  0.03985371    -0.55200
C126        C  0.31917250  0.87380328  0.04005630     0.08800
C127        C  0.25880290  0.83086016  0.00649708    -0.54700
C128        C  0.25633841  0.87008041  0.00703670     0.09300
H129        H  0.33526645  0.81860521  0.94795146     0.13900
H130        H  0.29559039  0.92301358  0.00517977    -0.00400
H131        H  0.33904577  0.81830415  0.06031034     0.14200
H132        H  0.23324174  0.81196194  0.00798108     0.14000
C133        C  0.69185269  0.82061629  0.99995451     0.85700
C134        C  0.66671996  0.83400725  0.03480066    -0.54500
C135        C  0.65896753  0.87271127  0.03489771     0.08700
C136        C  0.67714293  0.89524151  0.00080457     0.19600
C137        C  0.66923618  0.83536633  0.96396332    -0.55200
C138        C  0.66138910  0.87432212  0.96463332     0.08800
C139        C  0.72815292  0.84706181  0.00223446    -0.54700
C140        C  0.72054032  0.88590431  0.00302219     0.09300
H141        H  0.65558943  0.81578073  0.05792125     0.13900
H142        H  0.67100542  0.92682614  0.00098656    -0.00400
H143        H  0.65927981  0.81644881  0.94067382     0.14200
H144        H  0.75744110  0.83591628  0.00441415     0.14000
C145        C  0.68787423  0.81402510  0.49812105     0.85700
C146        C  0.67407529  0.83538871  0.46095006    -0.54500
C147        C  0.63564317  0.84440369  0.46093229     0.08700
C148        C  0.61395562  0.83118126  0.49781418     0.19600
C149        C  0.67587185  0.84216737  0.53080186    -0.55200
C150        C  0.63711871  0.85074013  0.53059752     0.08800
C151        C  0.66031211  0.77890791  0.50218613    -0.54700
C152        C  0.62193638  0.78773240  0.50259023     0.09300
H153        H  0.69295723  0.84567142  0.43781681     0.13900
H154        H  0.58254531  0.83815047  0.49808195    -0.00400
H155        H  0.69590482  0.85565031  0.55114387     0.14200
H156        H  0.67040009  0.74929018  0.50518712     0.14000
C157        C  0.28765444  0.20265687  0.00324971     0.85700
C158        C  0.30974260  0.18663144  0.03912239    -0.54500
C159        C  0.31881810  0.14815176  0.03692896     0.08700
C160        C  0.30426428  0.12835507  0.99956473     0.19600
C161        C  0.31399043  0.19142524  0.96863244    -0.55200
C162        C  0.32266789  0.15271437  0.96677093     0.08800
C163        C  0.25213798  0.17539663  0.00025146    -0.54700
C164        C  0.26071249  0.13696612  0.99695623     0.09300
H165        H  0.31931181  0.20338872  0.06392653     0.13900
H166        H  0.31090877  0.09694734  0.99771677    -0.00400
H167        H  0.32584393  0.21245778  0.94808182     0.14200
H168        H  0.22244323  0.18557438  0.99960429     0.14000
C169        C  0.68611613  0.21149547  0.99227440     0.85700
C170        C  0.65880957  0.19533988  0.96072826    -0.54500
C171        C  0.65763877  0.15577624  0.95872907     0.08700
C172        C  0.68377671  0.13575537  0.98878923     0.19600
C173        C  0.67143279  0.19174155  0.02993432    -0.55200
C174        C  0.67003605  0.15212353  0.02818566     0.08800
C175        C  0.72546125  0.19311754  0.98460801    -0.54700
C176        C  0.72474535  0.15375376  0.98210787     0.09300
H177        H  0.64204820  0.21370591  0.94145652     0.13900
H178        H  0.68218725  0.10361598  0.98699931    -0.00400
H179        H  0.65954914  0.20680497  0.05470079     0.14200
H180        H  0.75209379  0.21026436  0.98180083     0.14000
C181        C  0.29827467  0.20950332  0.49325229     0.85700
C182        C  0.31173500  0.18063684  0.46153642    -0.54500
C183        C  0.35090884  0.17505917  0.46140133     0.08700
C184        C  0.37320184  0.19779714  0.49249024     0.19600
C185        C  0.31443969  0.19199031  0.53145109    -0.55200
C186        C  0.35366474  0.18512000  0.53084201     0.08800
C187        C  0.32316128  0.24613884  0.48540744    -0.54700
C188        C  0.36204299  0.24002289  0.48523233     0.09300
H189        H  0.29347977  0.16654206  0.44005395     0.13900
H190        H  0.40513411  0.19368970  0.49179788    -0.00400
H191        H  0.29593689  0.18341659  0.55569088     0.14200
H192        H  0.31102580  0.27470708  0.48062097     0.14000
C193        C  0.29283266  0.81665603  0.49272469     0.85700
C194        C  0.31272387  0.83112335  0.53059879    -0.54500
C195        C  0.35243149  0.83309456  0.52859063     0.08700
C196        C  0.36854803  0.81991421  0.48873562     0.19600
C197        C  0.30844078  0.84448829  0.46120133    -0.55200
C198        C  0.34793311  0.84598733  0.45910041     0.08800
C199        C  0.31162700  0.77764591  0.48473616    -0.54700
C200        C  0.35078172  0.77904528  0.48131467     0.09300
H201        H  0.29768544  0.84209789  0.55582119     0.13900
H202        H  0.40073827  0.82140244  0.48659065    -0.00400
H203        H  0.28994118  0.86114826  0.44195300     0.14200
H204        H  0.29496678  0.75070025  0.48222410     0.14000
O205        O  0.86833911  0.76656332  0.46076684    -0.87200
O206        O  0.02426088  0.75055723  0.61309691    -0.87400
O207        O  0.91171006  0.69502709  0.56536451    -0.89100
O208        O  0.91735664  0.82417890  0.57458313    -0.87800
O209        O  0.94865870  0.87324072  0.54132610    -0.87400
O210        O  0.94741334  0.64953320  0.53251374    -0.88800
O211        O  0.95776154  0.75052683  0.61465323    -0.87300
O212        O  0.86776377  0.76261645  0.52725324    -0.86800
Zr213      Zr  0.93539565  0.76063189  0.54811146     2.84300
O214        O  0.99017270  0.80186677  0.54891596    -1.08800
O215        O  0.93630711  0.72308926  0.49172810    -1.09600
C216        C  0.85070367  0.76616010  0.49393752     1.05900
C217        C  0.99135240  0.74604939  0.63071606     1.05800
C218        C  0.92050997  0.65970101  0.55636864     1.08800
C219        C  0.92539824  0.86058301  0.56815153     1.06600
H220        H  0.99149811  0.70421133  0.56767689     0.32100
O221        O  0.99101204  0.72220681  0.54611748    -1.29800
H222        H  0.91279329  0.81816126  0.49406811     0.31800
O223        O  0.93546677  0.80198656  0.49355713    -1.31500
O224        O  0.11121548  0.77282234  0.52402599    -0.87200
O225        O  0.95718819  0.75745321  0.37014189    -0.88700
O226        O  0.04028623  0.65496816  0.53376968    -0.87300
O227        O  0.03502230  0.87259272  0.54211730    -0.87400
O228        O  0.94777792  0.87431119  0.44819210    -0.87100
O229        O  0.94138722  0.65289909  0.44999336    -0.86900
O230        O  0.07451635  0.70642303  0.41611982    -0.87200
O231        O  0.06170951  0.83140766  0.41003007    -0.86700
O232        O  0.03916159  0.65713735  0.44495281    -0.87800
O233        O  0.03443542  0.87798059  0.44820767    -0.86900
O234        O  0.07611220  0.70319602  0.56365741    -0.87300
O235        O  0.90568242  0.70015706  0.42040618    -0.87000
O236        O  0.91650262  0.82692666  0.41223300    -0.86700
O237        O  0.06316229  0.82430413  0.57760121    -0.87100
O238        O  0.11154690  0.77605332  0.45742839    -0.87400
O239        O  0.02371966  0.76111476  0.36872196    -0.88700
Zr240      Zr  0.04537254  0.76355489  0.54673395     2.83100
Zr241      Zr  0.93490314  0.76338476  0.43728634     2.83500
Zr242      Zr  0.99196160  0.68473818  0.48989358     2.84100
Zr243      Zr  0.99092468  0.84279890  0.49400770     2.83400
Zr244      Zr  0.04504226  0.76712052  0.43576598     2.84200
O245        O  0.98944832  0.80484322  0.43736553    -1.09300
O246        O  0.04623589  0.72626755  0.49020795    -1.08800
C247        C  0.12822508  0.77812402  0.49102666     1.05800
C248        C  0.99025333  0.75646003  0.35232873     1.08500
C249        C  0.06805778  0.66734259  0.55634914     1.06000
C250        C  0.05674131  0.86033933  0.57030948     1.06400
C251        C  0.92466871  0.86261179  0.42094704     1.06000
C252        C  0.91276249  0.66414585  0.42833072     1.05500
C253        C  0.06684320  0.67017334  0.42279764     1.05900
C254        C  0.05601745  0.86721081  0.41928793     1.05500
H255        H  0.99048941  0.70845128  0.41264325     0.32100
O256        O  0.99058924  0.72507089  0.43521724    -1.30400
H257        H  0.06789709  0.82268235  0.49285752     0.32200
O258        O  0.04593097  0.80495054  0.49242021    -1.31800
O259        O  0.87328173  0.25152341  0.47427702    -0.87200
O260        O  0.03064654  0.26846397  0.62373224    -0.87400
O261        O  0.92284924  0.19806054  0.58680891    -0.89100
O262        O  0.91368337  0.32371411  0.57916124    -0.87800
O263        O  0.94730684  0.37170979  0.54664339    -0.87400
O264        O  0.94974667  0.15201172  0.54718315    -0.88800
O265        O  0.96413908  0.26834828  0.62601834    -0.87300
O266        O  0.87439040  0.24946266  0.54090391    -0.86800
Zr267      Zr  0.94111050  0.26162045  0.55980095     2.84300
O268        O  0.99639163  0.30218212  0.55856837    -1.08800
O269        O  0.93896362  0.22343680  0.50360224    -1.09600
C270        C  0.85734186  0.24549687  0.50771684     1.05900
C271        C  0.99795753  0.27095008  0.64198745     1.05800
C272        C  0.92875783  0.16250071  0.57656973     1.08800
C273        C  0.92052914  0.35975351  0.57045361     1.06600
H274        H  0.99720421  0.20668322  0.58033266     0.32100
O275        O  0.99633209  0.22289742  0.55737716    -1.29800
H276        H  0.91510773  0.31664255  0.50485202     0.31800
O277        O  0.93855869  0.30161490  0.50451373    -1.31500
O278        O  0.11856962  0.25757363  0.53191640    -0.87200
O279        O  0.95740543  0.27670881  0.38209089    -0.88700
O280        O  0.03934707  0.15263975  0.54265711    -0.87300
O281        O  0.04329871  0.37369046  0.54402166    -0.87400
O282        O  0.94968707  0.37313192  0.45735206    -0.87100
O283        O  0.94911188  0.15386077  0.45376001    -0.86900
O284        O  0.06723636  0.20326758  0.41815491    -0.87200
O285        O  0.07502978  0.32765783  0.42717113    -0.86700
O286        O  0.03898753  0.15466401  0.45487511    -0.87800
O287        O  0.03991553  0.37422745  0.45818817    -0.86900
O288        O  0.07328056  0.19948969  0.57696274    -0.87300
O289        O  0.91726467  0.20123110  0.42038302    -0.87000
O290        O  0.91136672  0.32551113  0.42960156    -0.86700
O291        O  0.07887269  0.32676386  0.57442823    -0.87100
O292        O  0.11518352  0.25713923  0.46530297    -0.87400
O293        O  0.02389870  0.27862636  0.38016323    -0.88700
Zr294      Zr  0.05174692  0.26333891  0.55608760     2.83100
Zr295      Zr  0.93777107  0.26323278  0.44860334     2.83500
Zr296      Zr  0.99361501  0.18471740  0.50046397     2.84100
Zr297      Zr  0.99433984  0.34187100  0.50302986     2.83400
Zr298      Zr  0.04791571  0.26496292  0.44541290     2.84200
O299        O  0.99284430  0.30331474  0.44757845    -1.09300
O300        O  0.04889323  0.22496238  0.50016945    -1.08800
C301        C  0.13387452  0.25402074  0.49768738     1.05800
C302        C  0.99003891  0.28269261  0.36449586     1.08500
C303        C  0.06466747  0.16401160  0.56793923     1.06000
C304        C  0.07165205  0.36259209  0.56601077     1.06400
C305        C  0.92169689  0.36128610  0.43496943     1.06000
C306        C  0.92503084  0.16521500  0.42731072     1.05500
C307        C  0.06153747  0.16724100  0.42725820     1.05900
C308        C  0.06720997  0.36331249  0.43484427     1.05500
H309        H  0.99226585  0.20963401  0.42119680     0.32100
O310        O  0.99275555  0.22459272  0.44491889    -1.30400
H311        H  0.07334025  0.31885292  0.50058123     0.32200
O312        O  0.04990624  0.30314244  0.50121044    -1.31800
C313        C  0.79338794  0.51308883  0.69031362     0.85700
C314        C  0.81177680  0.47521032  0.67633147    -0.54500
C315        C  0.81849901  0.47414692  0.63720929     0.08700
C316        C  0.80589972  0.51070957  0.61532434     0.19600
C317        C  0.82106243  0.54556334  0.67468971    -0.55200
C318        C  0.82770872  0.54379421  0.63562223     0.08800
C319        C  0.75669745  0.51771109  0.66555251    -0.54700
C320        C  0.76335825  0.51686608  0.62644850     0.09300
H321        H  0.82095268  0.45235586  0.69600383     0.13900
H322        H  0.81115499  0.50945029  0.58344405    -0.00400
H323        H  0.83353594  0.56915995  0.69133774     0.14200
H324        H  0.72801034  0.52197112  0.67788289     0.14000
C325        C  0.18673595  0.51827398  0.69495807     0.85700
C326        C  0.16195436  0.55214771  0.67971674    -0.54500
C327        C  0.16122279  0.55559999  0.63991807     0.08700
C328        C  0.18455595  0.52405824  0.61883042     0.19600
C329        C  0.16902088  0.48240252  0.67436066    -0.55200
C330        C  0.16739636  0.48525918  0.63470747     0.08800
C331        C  0.22643955  0.52407054  0.67571444    -0.54700
C332        C  0.22589256  0.52777342  0.63625748     0.09300
H333        H  0.14652951  0.57175830  0.69875208     0.13900
H334        H  0.18371133  0.52659673  0.58667728    -0.00400
H335        H  0.15609207  0.45760933  0.68910634     0.14200
H336        H  0.25321110  0.52524204  0.69247069     0.14000
C337        C  0.80157342  0.01428122  0.29225914     0.85700
C338        C  0.81510915  0.98054630  0.31898404    -0.54500
C339        C  0.85408262  0.98094357  0.32673880     0.08700
C340        C  0.87600928  0.01519092  0.30778738     0.19600
C341        C  0.81569820  0.05059447  0.31411968    -0.55200
C342        C  0.85450383  0.05146546  0.32216399     0.08800
C343        C  0.82755624  0.01066450  0.25642737    -0.54700
C344        C  0.86623182  0.01082641  0.26437390     0.09300
H345        H  0.79692393  0.95768435  0.33090940     0.13900
H346        H  0.90761925  0.01622679  0.31411078    -0.00400
H347        H  0.79591203  0.07211071  0.32536156     0.14200
H348        H  0.81624813  0.00591100  0.22726886     0.14000
C349        C  0.78903794  0.00835659  0.68689117     0.85700
C350        C  0.80862875  0.04326376  0.66643798    -0.54500
C351        C  0.84834414  0.04254788  0.66647398     0.08700
C352        C  0.86514439  0.00637690  0.68727665     0.19600
C353        C  0.80599013  0.97317760  0.66530318    -0.55200
C354        C  0.84574305  0.97187109  0.66579762     0.08800
C355        C  0.80705943  0.00652929  0.72728827    -0.54700
C356        C  0.84641730  0.00530510  0.72827668     0.09300
H357        H  0.79246190  0.06582458  0.65170972     0.13900
H358        H  0.89739425  0.00567909  0.68746707    -0.00400
H359        H  0.78896641  0.95305872  0.64792820     0.14200
H360        H  0.78947063  0.00506490  0.75357656     0.14000
C361        C  0.80128144  0.50519407  0.29463594     0.85700
C362        C  0.81747973  0.54243297  0.31371435    -0.54500
C363        C  0.82024127  0.54081214  0.35347795     0.08700
C364        C  0.80521489  0.50161881  0.37053875     0.19600
C365        C  0.82819862  0.47296838  0.31007636    -0.55200
C366        C  0.82988234  0.47122473  0.34975012     0.08800
C367        C  0.76240508  0.49682086  0.31456807    -0.54700
C368        C  0.76406431  0.49456584  0.35383164     0.09300
H369        H  0.82799640  0.56712434  0.29679713     0.13900
H370        H  0.80635804  0.49980501  0.40278590    -0.00400
H371        H  0.84459405  0.45300809  0.29250386     0.14200
H372        H  0.73529858  0.49298697  0.29867490     0.14000
C373        C  0.19481497  0.51479118  0.30577668     0.85700
C374        C  0.16687266  0.48298603  0.32176653    -0.54500
C375        C  0.16026393  0.48496498  0.36090925     0.08700
C376        C  0.18193998  0.51888974  0.38078580     0.19600
C377        C  0.17683941  0.55317250  0.31883233    -0.55200
C378        C  0.16978900  0.55542304  0.35784175     0.08800
C379        C  0.23120511  0.50989625  0.33088320    -0.54700
C380        C  0.22472812  0.51193924  0.36997092     0.09300
H381        H  0.15457840  0.45935191  0.30496843     0.13900
H382        H  0.17684794  0.52056432  0.41263063    -0.00400
H383        H  0.16803951  0.57560970  0.29850409     0.14200
H384        H  0.25957724  0.50357808  0.31877885     0.14000
C385        C  0.19345201  0.02036745  0.30207138     0.85700
C386        C  0.17906952  0.05371973  0.32825152    -0.54500
C387        C  0.13960907  0.05613570  0.33024378     0.08700
C388        C  0.11771204  0.02516718  0.30630848     0.19600
C389        C  0.17329858  0.98430091  0.31982111    -0.55200
C390        C  0.13358764  0.98636122  0.32268755     0.08800
C391        C  0.17361066  0.02694606  0.26292382    -0.54700
C392        C  0.13433981  0.02993774  0.26452706     0.09300
H393        H  0.19741640  0.07288810  0.34539840     0.13900
H394        H  0.08567888  0.02785356  0.30760302    -0.00400
H395        H  0.18968701  0.96039131  0.33184352     0.14200
H396        H  0.18968735  0.02907432  0.23574377     0.14000
C397        C  0.18411992  0.01287058  0.69917030     0.85700
C398        C  0.16993142  0.97696426  0.67632219    -0.54500
C399        C  0.13124382  0.97726703  0.66747803     0.08700
C400        C  0.11001324  0.01295801  0.68252857     0.19600
C401        C  0.17132184  0.04735382  0.67339897    -0.55200
C402        C  0.13262261  0.04733496  0.66479593     0.08800
C403        C  0.15761287  0.01500484  0.73477934    -0.54700
C404        C  0.11900056  0.01540117  0.72610906     0.09300
H405        H  0.18905761  0.95412763  0.66664237     0.13900
H406        H  0.07855073  0.01186719  0.67573017    -0.00400
H407        H  0.19019726  0.06987095  0.66194253     0.14200
H408        H  0.16853184  0.01784253  0.76433645     0.14000
O409        O  0.73644468  0.63819268  0.96177034    -0.87200
O410        O  0.75258171  0.47634100  0.11358553    -0.87400
O411        O  0.68243260  0.58753398  0.07616459    -0.89100
O412        O  0.80943674  0.59109113  0.06776011    -0.87800
O413        O  0.85538264  0.55413031  0.03766875    -0.87400
O414        O  0.63383674  0.55978956  0.03895492    -0.88800
O415        O  0.75337474  0.54288377  0.11552230    -0.87300
O416        O  0.73751923  0.63568872  0.02832440    -0.86800
Zr417      Zr  0.74471863  0.56817300  0.04952228     2.84300
O418        O  0.78230239  0.51235839  0.04777038    -1.08800
O419        O  0.70481511  0.56932589  0.99465369    -1.09600
C420        C  0.73359271  0.65412320  0.99571555     1.05900
C421        C  0.75721636  0.50896427  0.13124455     1.05800
C422        C  0.64644037  0.58171940  0.06682992     1.08800
C423        C  0.84493959  0.58156758  0.06059009     1.06600
H424        H  0.68841447  0.51391289  0.07253213     0.32100
O425        O  0.70355223  0.51384338  0.04889712    -1.29800
H426        H  0.80009529  0.59266975  0.99486090     0.31800
O427        O  0.78396251  0.56951875  0.99421277    -1.31500
O428        O  0.72821708  0.39334357  0.02372076    -0.87200
O429        O  0.75207739  0.54930374  0.87246463    -0.88700
O430        O  0.63102692  0.47117275  0.04098756    -0.87300
O431        O  0.85261545  0.46526019  0.03472203    -0.87400
O432        O  0.85429627  0.56190466  0.95099399    -0.87100
O433        O  0.63442913  0.56092335  0.94934360    -0.86900
O434        O  0.67633667  0.44385172  0.90942820    -0.87200
O435        O  0.80128042  0.43510384  0.91457331    -0.86700
O436        O  0.62936208  0.47296866  0.94572255    -0.87800
O437        O  0.85022213  0.46852255  0.94569650    -0.86900
O438        O  0.67845397  0.44211023  0.07744471    -0.87300
O439        O  0.68264624  0.59052262  0.91286312    -0.87000
O440        O  0.80737740  0.59798557  0.92144772    -0.86700
O441        O  0.80325278  0.42998739  0.06289397    -0.87100
O442        O  0.72858772  0.39334944  0.95720809    -0.87400
O443        O  0.74856021  0.48271909  0.87118187    -0.88700
Zr444      Zr  0.74089479  0.45816417  0.04693406     2.83100
Zr445      Zr  0.74421867  0.57110900  0.93936948     2.83500
Zr446      Zr  0.66341908  0.51460574  0.99364264     2.84100
Zr447      Zr  0.82128355  0.51281566  0.99206544     2.83400
Zr448      Zr  0.73972718  0.46031181  0.93699994     2.84200
O449        O  0.78122486  0.51486695  0.93743636    -1.09300
O450        O  0.70047706  0.45855359  0.99239710    -1.08800
C451        C  0.72388252  0.37657845  0.99059091     1.05800
C452        C  0.75361815  0.51614973  0.85502767     1.08500
C453        C  0.64255591  0.44956763  0.06960956     1.06000
C454        C  0.83958927  0.43715124  0.05650064     1.06400
C455        C  0.84317630  0.59032018  0.92895297     1.06000
C456        C  0.64694073  0.58347002  0.92189033     1.05500
C457        C  0.64043753  0.45081132  0.91740797     1.05900
C458        C  0.83748231  0.44273734  0.92143882     1.05500
H459        H  0.68740188  0.51706613  0.91447708     0.32100
O460        O  0.70288193  0.51639393  0.93788327    -1.30400
H461        H  0.79464486  0.43411114  0.99040760     0.32200
O462        O  0.78001080  0.45778433  0.99142099    -1.31800
O463        O  0.25175068  0.63307773  0.96809095    -0.87200
O464        O  0.23405663  0.47726450  0.12333412    -0.87400
O465        O  0.18220591  0.59522384  0.07521591    -0.89100
O466        O  0.30634099  0.58202253  0.08413667    -0.87800
O467        O  0.35330756  0.55268464  0.04825572    -0.87400
O468        O  0.13310015  0.56035021  0.04579192    -0.88800
O469        O  0.23588365  0.54398311  0.12327571    -0.87300
O470        O  0.25274965  0.63288151  0.03482259    -0.86800
Zr471      Zr  0.24318952  0.56617301  0.05637741     2.84300
O472        O  0.28015780  0.51015390  0.05577088    -1.08800
O473        O  0.20318635  0.56783243  0.00150909    -1.09600
C474        C  0.25621353  0.64998777  0.00145866     1.05900
C475        C  0.23209951  0.51060714  0.14019897     1.05800
C476        C  0.14609019  0.58798391  0.06778425     1.08800
C477        C  0.34219569  0.57491470  0.07658115     1.06600
H478        H  0.18471827  0.51188152  0.08005013     0.32100
O479        O  0.20171214  0.51159057  0.05771134    -1.29800
H480        H  0.30019603  0.58815182  0.00016438     0.31800
O481        O  0.28227549  0.56632986  0.00044101    -1.31500
O482        O  0.24527429  0.38776358  0.03662521    -0.87200
O483        O  0.23082881  0.54311141  0.87893659    -0.88700
O484        O  0.12845318  0.46757776  0.04597168    -0.87300
O485        O  0.35028377  0.46821667  0.04633363    -0.87400
O486        O  0.35182604  0.55206100  0.95224177    -0.87100
O487        O  0.13093204  0.55729722  0.95781810    -0.86900
O488        O  0.17315198  0.43116988  0.93082071    -0.87200
O489        O  0.30065500  0.43633672  0.91870801    -0.86700
O490        O  0.12781122  0.46774067  0.96191394    -0.87800
O491        O  0.34944210  0.46784782  0.95255221    -0.86900
O492        O  0.17472744  0.42903847  0.07393418    -0.87300
O493        O  0.17938272  0.59331181  0.92829524    -0.87000
O494        O  0.30474763  0.58253007  0.91698931    -0.86700
O495        O  0.30256783  0.43879417  0.08287660    -0.87100
O496        O  0.24360541  0.38668364  0.96993209    -0.87400
O497        O  0.22822558  0.47648313  0.87897472    -0.88700
Zr498      Zr  0.23924857  0.45528358  0.05653678     2.83100
Zr499      Zr  0.24178305  0.56611840  0.94556107     2.83500
Zr500      Zr  0.16251224  0.51286713  0.00286748     2.84100
Zr501      Zr  0.31934636  0.51059061  0.00017125     2.83400
Zr502      Zr  0.23829186  0.45459159  0.94639094     2.84200
O503        O  0.27887983  0.50987918  0.94531991    -1.09300
O504        O  0.19923439  0.45589529  0.00195703    -1.08800
C505        C  0.24713904  0.36988623  0.00367708     1.05800
C506        C  0.22540110  0.50994857  0.86187034     1.08500
C507        C  0.13910535  0.43870255  0.06730465     1.06000
C508        C  0.33852034  0.44661336  0.07475580     1.06400
C509        C  0.34054351  0.57417215  0.92408610     1.06000
C510        C  0.14342538  0.58479239  0.93518626     1.05500
C511        C  0.13774887  0.44025746  0.93896586     1.05900
C512        C  0.33669210  0.44461195  0.92579560     1.05500
H513        H  0.18318205  0.51127779  0.92540079     0.32100
O514        O  0.20090695  0.51112569  0.94714849    -1.30400
H515        H  0.29543384  0.43256691  0.00104965     0.32200
O516        O  0.27899296  0.45503683  0.00104879    -1.31800
C517        C  0.99852512  0.70251918  0.79470492     0.85700
C518        C  0.03036858  0.67593970  0.81059938    -0.54500
C519        C  0.03284292  0.67553280  0.85027078     0.08700
C520        C  0.00265227  0.70072295  0.87072846     0.19600
C521        C  0.96138774  0.68662425  0.81481946    -0.55200
C522        C  0.96353193  0.68513571  0.85454415     0.08800
C523        C  0.00549823  0.74214540  0.81362215    -0.54700
C524        C  0.00878385  0.74145840  0.85287335     0.09300
H525        H  0.04858143  0.65809232  0.79240010     0.13900
H526        H  0.00468241  0.70040257  0.90297638    -0.00400
H527        H  0.93668265  0.67389982  0.79991223     0.14200
H528        H  0.00712123  0.76906072  0.79703022     0.14000
C529        C  0.99143436  0.31146048  0.80689644     0.85700
C530        C  0.95351716  0.33130160  0.81822078    -0.54500
C531        C  0.95087628  0.33976864  0.85690717     0.08700
C532        C  0.98613358  0.32705995  0.88120130     0.19600
C533        C  0.02292473  0.33986548  0.82232049    -0.55200
C534        C  0.02093831  0.34682430  0.86129222     0.08800
C535        C  0.99427218  0.27584899  0.83355810    -0.54700
C536        C  0.99177336  0.28400635  0.87224438     0.09300
H537        H  0.93209518  0.34056225  0.79704746     0.13900
H538        H  0.98364925  0.33314126  0.91281069    -0.00400
H539        H  0.04419852  0.35512910  0.80479211     0.14200
H540        H  0.99966096  0.24678080  0.82279384     0.14000
C541        C  0.49143870  0.70233621  0.79688271     0.85700
C542        C  0.45641241  0.68390490  0.81899121    -0.54500
C543        C  0.45984127  0.64508524  0.82654825     0.08700
C544        C  0.49764868  0.62779508  0.81114296     0.19600
C545        C  0.52596919  0.69193164  0.82304661    -0.55200
C546        C  0.52934249  0.65309783  0.82978215     0.08800
C547        C  0.49552321  0.67699519  0.76041021    -0.54700
C548        C  0.49955815  0.63839474  0.76790760     0.09300
H549        H  0.43193232  0.69948236  0.83046053     0.13900
H550        H  0.50056934  0.59621264  0.81695889    -0.00400
H551        H  0.54538270  0.71322068  0.83619945     0.14200
H552        H  0.49613397  0.68871400  0.73101597     0.14000
C553        C  0.49793835  0.71132328  0.19163404     0.85700
C554        C  0.52962613  0.69739276  0.16300784    -0.54500
C555        C  0.53215325  0.65786481  0.16060182     0.08700
C556        C  0.50274469  0.63563658  0.18620194     0.19600
C557        C  0.46087981  0.69110382  0.17575988    -0.55200
C558        C  0.46297542  0.65138567  0.17235226     0.08800
C559        C  0.50746073  0.69097097  0.22969196    -0.54700
C560        C  0.51026464  0.65200820  0.22743566     0.09300
H561        H  0.54805624  0.71614518  0.14536269     0.13900
H562        H  0.50535734  0.60360058  0.18474548    -0.00400
H563        H  0.43687708  0.70727317  0.16376218     0.14200
H564        H  0.51187264  0.70656226  0.25686826     0.14000
C565        C  0.98456322  0.32096717  0.19902095     0.85700
C566        C  0.02014762  0.34184380  0.18137702    -0.54500
C567        C  0.02130350  0.34199822  0.14171796     0.08700
C568        C  0.98575527  0.32152846  0.12275087     0.19600
C569        C  0.94985726  0.34226550  0.18032585    -0.55200
C570        C  0.95092874  0.34299257  0.14034983     0.08800
C571        C  0.98319532  0.28077051  0.18059640    -0.54700
C572        C  0.98334940  0.28048368  0.14114067     0.09300
H573        H  0.04193419  0.35679932  0.19891074     0.13900
H574        H  0.98638074  0.32165505  0.09043598    -0.00400
H575        H  0.92760619  0.35736457  0.19632587     0.14200
H576        H  0.98167802  0.25416406  0.19771514     0.14000
C577        C  0.99353922  0.71409414  0.18770079     0.85700
C578        C  0.96256130  0.68400888  0.17456397    -0.54500
C579        C  0.96110486  0.67809915  0.13532016     0.08700
C580        C  0.99307873  0.70012127  0.11292848     0.19600
C581        C  0.03111058  0.69609936  0.17271391    -0.55200
C582        C  0.03087051  0.68827409  0.13388006     0.08800
C583        C  0.98607771  0.74984092  0.16229544    -0.54700
C584        C  0.98579150  0.74277294  0.12339836     0.09300
H585        H  0.94546428  0.66603650  0.19408938     0.13900
H586        H  0.99320600  0.69477358  0.08110280    -0.00400
H587        H  0.05397811  0.68592270  0.19178735     0.14200
H588        H  0.98031438  0.77836719  0.17424228     0.14000
C589        C  0.48660519  0.31323634  0.80130358     0.85700
C590        C  0.52302638  0.33307083  0.81911692    -0.54500
C591        C  0.52048877  0.37261103  0.82325964     0.08700
C592        C  0.48150042  0.38876108  0.80801974     0.19600
C593        C  0.45345658  0.32655683  0.82806254    -0.55200
C594        C  0.45045823  0.36607367  0.83155815     0.08800
C595        C  0.48003775  0.33449726  0.76299176    -0.54700
C596        C  0.47648949  0.37363810  0.76593848     0.09300
H597        H  0.54741930  0.31731276  0.83079068     0.13900
H598        H  0.47932583  0.42072405  0.81035497    -0.00400
H599        H  0.43364486  0.30623750  0.84219607     0.14200
H600        H  0.47760445  0.31931455  0.73537738     0.14000
C601        C  0.49188321  0.32185601  0.19887700     0.85700
C602        C  0.45587824  0.33658930  0.17654567    -0.54500
C603        C  0.45530145  0.37593091  0.17135800     0.08700
C604        C  0.49101153  0.39719716  0.18804216     0.19600
C605        C  0.52650598  0.33791038  0.17515762    -0.55200
C606        C  0.52603497  0.37715077  0.16938011     0.08800
C607        C  0.49169221  0.34588114  0.23667041    -0.54700
C608        C  0.49097806  0.38518001  0.23100804     0.09300
H609        H  0.43282859  0.31848350  0.16498547     0.13900
H610        H  0.49118013  0.42916772  0.18378782    -0.00400
H611        H  0.54887502  0.31962536  0.16300043     0.14200
H612        H  0.49053596  0.33282741  0.26547759     0.14000
O613        O  0.56681204  0.42093172  0.54923698    -0.87200
O614        O  0.44668884  0.51204982  0.36936412    -0.87400
O615        O  0.48156290  0.39086843  0.45254494    -0.89100
O616        O  0.58705252  0.46203653  0.42275174    -0.87800
O617        O  0.60118138  0.52696755  0.42843473    -0.87400
O618        O  0.43438541  0.40081257  0.49889235    -0.88800
O619        O  0.48724685  0.47309475  0.39632424    -0.87300
O620        O  0.55474465  0.40171089  0.48635540    -0.86800
Zr621      Zr  0.52077240  0.45159643  0.45262897     2.84300
O622        O  0.51473425  0.51615080  0.43221059    -1.08800
O623        O  0.49923617  0.44700447  0.51704943    -1.09600
C624        C  0.56833712  0.39630984  0.52072499     1.05900
C625        C  0.47000026  0.48357703  0.36583527     1.05800
C626        C  0.45261759  0.37948408  0.47426402     1.08800
C627        C  0.61025405  0.49230458  0.41940175     1.06600
H628        H  0.43817215  0.45610928  0.44144130     0.32100
O629        O  0.45545517  0.47265951  0.45644724    -1.29800
H630        H  0.58517022  0.48107835  0.49132553     0.31800
O631        O  0.55905243  0.49071771  0.49239001    -1.31500
O632        O  0.42150012  0.60446313  0.44743948    -0.87200
O633        O  0.53701994  0.52534241  0.61639855    -0.88700
O634        O  0.37424931  0.46985800  0.48474509    -0.87300
O635        O  0.54933481  0.58374212  0.40434146    -0.87400
O636        O  0.61628450  0.54764438  0.50667683    -0.87100
O637        O  0.44156813  0.43918264  0.58771448    -0.86900
O638        O  0.40471818  0.56289049  0.56827726    -0.87200
O639        O  0.51057593  0.63239485  0.53505811    -0.86700
O640        O  0.38539846  0.50002716  0.55632017    -0.87800
O641        O  0.56011206  0.62190621  0.49169204    -0.86900
O642        O  0.38379075  0.51505737  0.43611539    -0.87300
O643        O  0.50533816  0.44819652  0.60516342    -0.87000
O644        O  0.60574979  0.50453130  0.55697563    -0.86700
O645        O  0.48524328  0.57578703  0.38846734    -0.87100
O646        O  0.43085153  0.61993887  0.51160439    -0.87400
O647        O  0.49293325  0.57400064  0.60661125    -0.88700
Zr648      Zr  0.45006054  0.53891287  0.43593623     2.83100
Zr649      Zr  0.53808889  0.48617735  0.55655872     2.83500
Zr650      Zr  0.43525627  0.46759168  0.52138272     2.84100
Zr651      Zr  0.55509894  0.55519040  0.47048358     2.83400
Zr652      Zr  0.47093271  0.57187573  0.53972543     2.84200
O653        O  0.53555975  0.55133007  0.53587480    -1.09300
O654        O  0.43101131  0.53250835  0.50072966    -1.08800
C655        C  0.41953470  0.62796693  0.47703949     1.05800
C656        C  0.51679008  0.55461583  0.62780211     1.08500
C657        C  0.36278449  0.49075748  0.45573206     1.06000
C658        C  0.52025424  0.58621898  0.38046897     1.06400
C659        C  0.62748786  0.52689593  0.53597552     1.06000
C660        C  0.47019287  0.43734908  0.61234377     1.05500
C661        C  0.37933501  0.53446937  0.56889399     1.05900
C662        C  0.54035985  0.64367593  0.51455818     1.05500
H663        H  0.46445120  0.50750731  0.58688741     0.32100
O664        O  0.47403398  0.50771229  0.56052171    -1.30400
H665        H  0.49137398  0.60379820  0.46549416     0.32200
O666        O  0.49139001  0.57728570  0.47463803    -1.31800
O667        O  0.07962065  0.93621259  0.04536196    -0.87200
O668        O  0.00545877  0.05463477  0.87607055    -0.87400
O669        O  0.03693793  0.91832060  0.92306629    -0.89100
O670        O  0.11083478  0.02177724  0.95150801    -0.87800
O671        O  0.10328685  0.07161167  0.99534577    -0.87400
O672        O  0.97218690  0.90465289  0.93048960    -0.88800
O673        O  0.05049954  0.00640474  0.88394538    -0.87300
O674        O  0.09587907  0.94368888  0.98091532    -0.86800
Zr675      Zr  0.04930432  0.98481996  0.95051953     2.84300
O676        O  0.03152876  0.05049987  0.95519165    -1.08800
O677        O  0.00898221  0.94693563  0.98990338    -1.09600
C678        C  0.10218375  0.93129474  0.01560404     1.05900
C679        C  0.03279635  0.03228142  0.86382590     1.05800
C680        C  0.00660206  0.89531043  0.92025940     1.08800
C681        C  0.12325442  0.05143403  0.97120582     1.06600
H682        H  0.98352762  0.98277543  0.90414792     0.32100
O683        O  0.98523986  0.99198787  0.93058323    -1.29800
H684        H  0.08294486  0.00520497  0.02384016     0.31800
O685        O  0.05643480  0.00665671  0.01488741    -1.31500
O686        O  0.90012383  0.08336267  0.94554547    -0.87200
O687        O  0.97954421  0.97030597  0.11477989    -0.88700
O688        O  0.91257918  0.96368254  0.90599042    -0.87300
O689        O  0.03376423  0.13296544  0.98376069    -0.87400
O690        O  0.06560014  0.06169526  0.08623638    -0.87100
O691        O  0.94540654  0.89462335  0.01006101    -0.86900
O692        O  0.87138451  0.00374888  0.03770044    -0.87200
O693        O  0.94647734  0.10318814  0.07355533    -0.86700
O694        O  0.87780517  0.95781680  0.98975009    -0.87800
O695        O  0.00999473  0.11961435  0.06056154    -0.86900
O696        O  0.92655970  0.02660820  0.88782450    -0.87300
O697        O  0.99493645  0.90127564  0.05449420    -0.87000
O698        O  0.05266840  0.99870000  0.10410748    -0.86700
O699        O  0.98690565  0.12446483  0.93663861    -0.87100
O700        O  0.88478646  0.07720846  0.01028672    -0.87400
O701        O  0.93420329  0.01812337  0.10718993    -0.88700
Zr702      Zr  0.96654469  0.05703777  0.93603774     2.83100
Zr703      Zr  0.01614953  0.96782478  0.05382772     2.83500
Zr704      Zr  0.94461381  0.95423472  0.97007312     2.84100
Zr705      Zr  0.03757512  0.07126183  0.01991756     2.83400
Zr706      Zr  0.93371260  0.03951222  0.04068681     2.84200
O707        O  0.99804716  0.03254916  0.05936378    -1.09300
O708        O  0.92731254  0.01891321  0.97621871    -1.08800
C709        C  0.87672659  0.08665533  0.97508439     1.05800
C710        C  0.95279522  0.99300696  0.12738893     1.08500
C711        C  0.91096640  0.99299449  0.88215945     1.06000
C712        C  0.01146062  0.14528219  0.95611099     1.06400
C713        C  0.06579865  0.03303414  0.11105783     1.06000
C714        C  0.96809797  0.88167774  0.03715371     1.05500
C715        C  0.85806567  0.97674640  0.01493015     1.05900
C716        C  0.97685247  0.12609688  0.07612692     1.05500
H717        H  0.93417754  0.95790903  0.05186608     0.32100
O718        O  0.95073930  0.97378313  0.03537914    -1.30400
H719        H  0.96394791  0.10417611  0.00207136     0.32200
O720        O  0.97275543  0.07779028  0.00025511    -1.31800
C721        C  0.45224491  0.46459275  0.29726758    -0.27100
C722        C  0.47721596  0.46158703  0.32938052    -0.15100
C723        C  0.50834661  0.43490392  0.32737059     0.35500
C724        C  0.51235361  0.41076283  0.29496998    -0.26500
C725        C  0.48677282  0.41304785  0.26356364    -0.15700
C726        C  0.45665821  0.44045131  0.26451535     0.36600
N727        N  0.42909515  0.44226392  0.23338331    -0.90000
H728        H  0.42836351  0.48469733  0.29814066     0.17700
H729        H  0.53576316  0.39004253  0.29437297     0.17700
N730        N  0.53626974  0.43218172  0.35814994    -0.89000
H731        H  0.42896793  0.47071501  0.22268610     0.35100
H732        H  0.40154881  0.43588109  0.24474856     0.40200
H733        H  0.56385064  0.43782549  0.34649150     0.39800
H734        H  0.53569379  0.40372131  0.36885022     0.34700
C735        C  0.43968045  0.38173072  0.70374258    -0.27100
C736        C  0.46679303  0.39699191  0.73076112    -0.15100
C737        C  0.48857516  0.43017726  0.72045559     0.35500
C738        C  0.48745663  0.44356678  0.68196731    -0.26500
C739        C  0.46386643  0.42535731  0.65347469    -0.15700
C740        C  0.43782839  0.39568573  0.66537519     0.36600
N741        N  0.41094569  0.37773987  0.63894500    -0.90000
H742        H  0.42135323  0.35716471  0.71189464     0.17700
H743        H  0.50625745  0.46787685  0.67409246     0.17700
N744        N  0.51331648  0.44924015  0.74818730    -0.89000
H745        H  0.42650947  0.36630273  0.61560895     0.35100
H746        H  0.39232201  0.39903638  0.62839387     0.40200
H747        H  0.50506880  0.47830376  0.74982862     0.39800
H748        H  0.54183643  0.44860001  0.73777333     0.34700
C749        C  0.94271005  0.79577857  0.09994661    -0.27100
C750        C  0.97633173  0.77354725  0.09480060    -0.15100
C751        C  0.00256306  0.78334023  0.06489895     0.35500
C752        C  0.99652180  0.81713009  0.04292555    -0.26500
C753        C  0.96462591  0.84109268  0.05013920    -0.15700
C754        C  0.93633592  0.82934763  0.07768436     0.36600
N755        N  0.90244494  0.85196703  0.08569642    -0.90000
H756        H  0.92210840  0.78789498  0.12259416     0.17700
H757        H  0.01841816  0.82649154  0.02208125     0.17700
N758        N  0.03672840  0.76062261  0.05895248    -0.89000
H759        H  0.87811177  0.83485861  0.07865898     0.35100
H760        H  0.90113092  0.87654202  0.06793569     0.40200
H761        H  0.05404304  0.76359775  0.08379169     0.39800
H762        H  0.05310003  0.77170102  0.03569944     0.34700
C763        C  0.94501421  0.18995557  0.08922721    -0.27100
C764        C  0.97533537  0.16399518  0.09660594    -0.15100
C765        C  0.00878941  0.17764866  0.11675908     0.35500
C766        C  0.01137179  0.21650479  0.12850815    -0.26500
C767        C  0.98156376  0.24256953  0.12071398    -0.15700
C768        C  0.94800758  0.22914986  0.10077936     0.36600
N769        N  0.91675117  0.25466830  0.09185891    -0.90000
H770        H  0.91980299  0.18026803  0.07282627     0.17700
H771        H  0.03669423  0.22653290  0.14458479     0.17700
N772        N  0.04052729  0.15200568  0.12460114    -0.89000
H773        H  0.92773430  0.27740549  0.07467976     0.35100
H774        H  0.90644631  0.26634298  0.11787053     0.40200
H775        H  0.03031000  0.13015882  0.14333726     0.39800
H776        H  0.06301447  0.16659404  0.13921348     0.34700
C777        C  0.54961683  0.64185658  0.28803121    -0.27100
C778        C  0.51933755  0.62941410  0.26292390    -0.15100
C779        C  0.49354708  0.60035307  0.27538155     0.35500
C780        C  0.49762988  0.58463473  0.31245713    -0.26500
C781        C  0.52507575  0.59942752  0.33940701    -0.15700
C782        C  0.55243914  0.62754771  0.32656001     0.36600
N783        N  0.58163237  0.64255004  0.35261198    -0.90000
H784        H  0.56955117  0.66451803  0.27828702     0.17700
H785        H  0.47698177  0.56217686  0.32091904     0.17700
N786        N  0.46093702  0.58907519  0.25185604    -0.89000
H787        H  0.59940507  0.66294138  0.33831873     0.35100
H788        H  0.56743226  0.65748027  0.37474047     0.40200
H789        H  0.43556661  0.59470997  0.26748277     0.39800
H790        H  0.46218044  0.55912960  0.24721882     0.34700
C791        C  0.47999512  0.58319866  0.72575066    -0.27100
C792        C  0.50842469  0.61030061  0.73692310    -0.15100
C793        C  0.54390473  0.61243876  0.71648050     0.35500
C794        C  0.54862890  0.59061369  0.68227640    -0.26500
C795        C  0.51832943  0.56647671  0.66886903    -0.15700
C796        C  0.48477506  0.56122021  0.69187418     0.36600
N797        N  0.45456903  0.53494564  0.67962649    -0.90000
H798        H  0.45311520  0.58068681  0.74206596     0.17700
H799        H  0.57472305  0.59451166  0.66495999     0.17700
N800        N  0.57464242  0.63744650  0.73000505    -0.89000
H801        H  0.42920146  0.55080319  0.67572743     0.35100
H802        H  0.44955164  0.51500152  0.70213763     0.40200
H803        H  0.58163123  0.65714084  0.70778440     0.39800
H804        H  0.59899016  0.62040216  0.73524616     0.34700
C805        C  0.03654539  0.23599346  0.90086728    -0.27100
C806        C  0.00047637  0.25450395  0.90203127    -0.15100
C807        C  0.97179422  0.24144743  0.92812274     0.35500
C808        C  0.97787113  0.20737437  0.94951888    -0.26500
C809        C  0.01239696  0.18651521  0.94530734    -0.15700
C810        C  0.04278652  0.20186116  0.92232577     0.36600
N811        N  0.07867435  0.18139353  0.91879499    -0.90000
H812        H  0.05889108  0.24682142  0.88124138     0.17700
H813        H  0.95438854  0.19552792  0.96717007     0.17700
N814        N  0.93548953  0.26103018  0.93075785    -0.89000
H815        H  0.09809481  0.19678692  0.90089492     0.35100
H816        H  0.07265240  0.15508540  0.90476999     0.40200
H817        H  0.93141833  0.26916119  0.95974954     0.39800
H818        H  0.91332325  0.24131643  0.92334432     0.34700
C819        C  0.98608831  0.78692810  0.90253680    -0.27100
C820        C  0.01395663  0.77801685  0.87498811    -0.15100
C821        C  0.04234376  0.80632871  0.86482891     0.35500
C822        C  0.04036338  0.84422692  0.88025263    -0.26500
C823        C  0.01028383  0.85436056  0.90579669    -0.15700
C824        C  0.98358412  0.82423235  0.91770090     0.36600
N825        N  0.95382319  0.82973143  0.94599483    -0.90000
H826        H  0.96446394  0.76521008  0.91085084     0.17700
H827        H  0.06176707  0.86589170  0.87142326     0.17700
N828        N  0.07314476  0.79657873  0.83878979    -0.89000
H829        H  0.93299565  0.84873364  0.93529885     0.35100
H830        H  0.96706867  0.84063279  0.97086466     0.40200
H831        H  0.09952370  0.80176363  0.85308874     0.39800
H832        H  0.07188022  0.81520807  0.81475756     0.34700
C833        C  0.11716075  0.39288416  0.88928630    -0.27100
C834        C  0.10652548  0.41725326  0.92001137    -0.15100
C835        C  0.06706166  0.41728681  0.93234493     0.35500
C836        C  0.03980146  0.39386723  0.91314161    -0.26500
C837        C  0.05069794  0.37013717  0.88206713    -0.15700
C838        C  0.09016605  0.36839653  0.87144222     0.36600
N839        N  0.10356970  0.34006005  0.84429577    -0.90000
H840        H  0.14707838  0.39151890  0.87964814     0.17700
H841        H  0.00992107  0.39447559  0.92278072     0.17700
N842        N  0.05352974  0.44000875  0.96435657    -0.89000
H843        H  0.12373754  0.32256737  0.85850957     0.35100
H844        H  0.11792760  0.35462587  0.82160912     0.40200
H845        H  0.05757203  0.46946044  0.95789160     0.39800
H846        H  0.06912753  0.43265559  0.98936429     0.34700
C847        C  0.05355457  0.40603589  0.12960819    -0.27100
C848        C  0.05056531  0.36632953  0.12050337    -0.15100
C849        C  0.07627212  0.35057721  0.09303783     0.35500
C850        C  0.10515878  0.37474362  0.07602928    -0.26500
C851        C  0.10795807  0.41447371  0.08517453    -0.15700
C852        C  0.08118956  0.43047410  0.11145301     0.36600
N853        N  0.08298437  0.47116904  0.12063152    -0.90000
H854        H  0.03363062  0.41815068  0.15060063     0.17700
H855        H  0.12550254  0.36263542  0.05544911     0.17700
N856        N  0.07345980  0.31011661  0.08315059    -0.89000
H857        H  0.06297239  0.47774800  0.14244892     0.35100
H858        H  0.07435624  0.48647206  0.09585403     0.40200
H859        H  0.07967115  0.29406815  0.10821599     0.39800
H860        H  0.09456135  0.30310583  0.06254280     0.34700
C861        C  0.09290784  0.67834739  0.09906755    -0.27100
C862        C  0.05988331  0.66207685  0.11678354    -0.15100
C863        C  0.05668561  0.62117540  0.12074054     0.35500
C864        C  0.08447171  0.59755762  0.10353246    -0.26500
C865        C  0.11722947  0.61384643  0.08522212    -0.15700
C866        C  0.12207272  0.65464407  0.08384095     0.36600
N867        N  0.15650651  0.67183427  0.06700099    -0.90000
H868        H  0.09629267  0.70962723  0.09775259     0.17700
H869        H  0.08130794  0.56626244  0.10588490     0.17700
N870        N  0.02684704  0.60284769  0.14365991    -0.89000
H871        H  0.15601396  0.70209550  0.06926959     0.35100
H872        H  0.15644503  0.66538055  0.03732636     0.40200
H873        H  0.99988934  0.60984741  0.13213462     0.39800
H874        H  0.02863566  0.61353369  0.17205080     0.34700
C875        C  0.08626470  0.67034845  0.89810338    -0.27100
C876        C  0.06103778  0.65193284  0.87179826    -0.15100
C877        C  0.06260711  0.61142945  0.86678324     0.35500
C878        C  0.08862296  0.58972937  0.88908497    -0.26500
C879        C  0.11446499  0.60821204  0.91478920    -0.15700
C880        C  0.11370664  0.64905116  0.91878388     0.36600
N881        N  0.14022548  0.66952031  0.94378023    -0.90000
H882        H  0.08532532  0.70158560  0.90175208     0.17700
H883        H  0.08952764  0.55850346  0.88537627     0.17700
N884        N  0.03770076  0.59229843  0.83923822    -0.89000
H885        H  0.16851966  0.66530885  0.93379575     0.35100
H886        H  0.13770178  0.65777391  0.97174163     0.40200
H887        H  0.02132769  0.57110448  0.85398957     0.39800
H888        H  0.05524801  0.57825175  0.81899389     0.34700
C889        C  0.38084538  0.39004017  0.91441677    -0.27100
C890        C  0.36567654  0.42522160  0.90158585    -0.15100
C891        C  0.37772060  0.44089430  0.86566804     0.35500
C892        C  0.40468684  0.42081141  0.84285638    -0.26500
C893        C  0.42043176  0.38550057  0.85575118    -0.15700
C894        C  0.40837103  0.37029772  0.89218608     0.36600
N895        N  0.42497713  0.33564833  0.90764121    -0.90000
H896        H  0.37163783  0.37803326  0.94219033     0.17700
H897        H  0.41315512  0.43292119  0.81493415     0.17700
N898        N  0.36274720  0.47723519  0.85246219    -0.89000
H899        H  0.40243136  0.31562314  0.91290185     0.35100
H900        H  0.43805074  0.34242342  0.93428699     0.40200
H901        H  0.34941316  0.47272816  0.82547451     0.39800
H902        H  0.38619670  0.49647087  0.84834673     0.34700
C903        C  0.39130807  0.62645551  0.83962479    -0.27100
C904        C  0.43044212  0.62349879  0.85009395    -0.15100
C905        C  0.44025405  0.60226110  0.88375863     0.35500
C906        C  0.41063309  0.58682780  0.90762680    -0.26500
C907        C  0.37111547  0.59082909  0.89783604    -0.15700
C908        C  0.36179156  0.60954883  0.86237012     0.36600
N909        N  0.32257899  0.61064098  0.84850059    -0.90000
H910        H  0.38355332  0.64173531  0.81317085     0.17700
H911        H  0.41882546  0.57170059  0.93400753     0.17700
N912        N  0.48004012  0.59681096  0.89435233    -0.89000
H913        H  0.32149154  0.59680439  0.82145597     0.35100
H914        H  0.31510628  0.63968576  0.84440393     0.40200
H915        H  0.48407797  0.60745433  0.92254943     0.39800
H916        H  0.48511639  0.56695634  0.89509244     0.34700
C917        C  0.41171198  0.58300910  0.09910217    -0.27100
C918        C  0.37251685  0.59362183  0.10267092    -0.15100
C919        C  0.36349760  0.62200411  0.13141663     0.35500
C920        C  0.39304010  0.63850604  0.15457362    -0.26500
C921        C  0.43222599  0.62839156  0.15042665    -0.15700
C922        C  0.44123875  0.59960657  0.12262960     0.36600
N923        N  0.48046495  0.58769861  0.11702906    -0.90000
H924        H  0.41987316  0.56194148  0.07739722     0.17700
H925        H  0.38516317  0.66024910  0.17578700     0.17700
N926        N  0.32496300  0.63604021  0.13739170    -0.89000
H927        H  0.48784517  0.59248711  0.08788834     0.35100
H928        H  0.48162235  0.55781464  0.12228330     0.40200
H929        H  0.30692806  0.61317321  0.14672015     0.39800
H930        H  0.31465677  0.64785703  0.11135973     0.34700
C931        C  0.35744093  0.40107435  0.12755529    -0.27100
C932        C  0.36847303  0.42993746  0.10055790    -0.15100
C933        C  0.40758299  0.44320338  0.09991120     0.35500
C934        C  0.43469370  0.42639205  0.12473087    -0.26500
C935        C  0.42412762  0.39602174  0.14987553    -0.15700
C936        C  0.38466909  0.38443699  0.15267270     0.36600
N937        N  0.37221917  0.35640677  0.18133738    -0.90000
H938        H  0.32742498  0.39130368  0.12921359     0.17700
H939        H  0.46460285  0.43637686  0.12301326     0.17700
N940        N  0.42033796  0.47352032  0.07405596    -0.89000
H941        H  0.34230956  0.35101013  0.17929324     0.35100
H942        H  0.37718639  0.36861038  0.20875026     0.40200
H943        H  0.44217795  0.46248587  0.05624709     0.39800
H944        H  0.43263463  0.49576105  0.09085904     0.34700
C945        C  0.57784378  0.41700572  0.07969742    -0.27100
C946        C  0.61235945  0.43227965  0.09571050    -0.15100
C947        C  0.61750161  0.43078616  0.13655134     0.35500
C948        C  0.58866662  0.41352946  0.16030560    -0.26500
C949        C  0.55473383  0.39754623  0.14404416    -0.15700
C950        C  0.54918086  0.39959792  0.10349026     0.36600
N951        N  0.51457089  0.38364741  0.08633601    -0.90000
H952        H  0.57338081  0.41792702  0.04848393     0.17700
H953        H  0.59299526  0.41222470  0.19152845     0.17700
N954        N  0.65171210  0.44723162  0.15409205    -0.89000
H955        H  0.52267912  0.36210107  0.06670359     0.35100
H956        H  0.50114886  0.40566803  0.07047966     0.40200
H957        H  0.66560347  0.42528461  0.16963495     0.39800
H958        H  0.64311810  0.46841021  0.17393127     0.34700
C959        C  0.58926140  0.62443184  0.07279117    -0.27100
C960        C  0.61723052  0.60115314  0.09067030    -0.15100
C961        C  0.61673134  0.59604328  0.13130966     0.35500
C962        C  0.58845090  0.61452645  0.15364304    -0.26500
C963        C  0.56093066  0.63835518  0.13592680    -0.15700
C964        C  0.56122425  0.64330613  0.09521850     0.36600
N965        N  0.53271622  0.66692138  0.07663601    -0.90000
H966        H  0.58942576  0.62822916  0.04145517     0.17700
H967        H  0.58814128  0.61050159  0.18495060     0.17700
N968        N  0.64419396  0.57109417  0.14974093    -0.89000
H969        H  0.51777092  0.64982086  0.05630254     0.35100
H970        H  0.54730631  0.68908868  0.06146244     0.40200
H971        H  0.65949505  0.58731394  0.17052899     0.39800
H972        H  0.62873948  0.54904378  0.16423809     0.34700
C973        C  0.59511950  0.63079484  0.91436383    -0.27100
C974        C  0.61782759  0.60180961  0.89797015    -0.15100
C975        C  0.61174864  0.58983230  0.85924563     0.35500
C976        C  0.58262485  0.60711130  0.83749091    -0.26500
C977        C  0.56012474  0.63652935  0.85362168    -0.15700
C978        C  0.56621797  0.64863673  0.89233191     0.36600
N979        N  0.54298540  0.67867448  0.90906968    -0.90000
H980        H  0.60006883  0.63948446  0.94428590     0.17700
H981        H  0.57758836  0.59767217  0.80781931     0.17700
N982        N  0.63403679  0.55961990  0.84182473    -0.89000
H983        H  0.55124061  0.68389318  0.93789629     0.35100
H984        H  0.51415156  0.66882934  0.90984010     0.40200
H985        H  0.63083076  0.53448351  0.85874887     0.39800
H986        H  0.66332781  0.56807469  0.84195771     0.34700
C987        C  0.57061726  0.44195349  0.89588996    -0.27100
C988        C  0.60997865  0.43199712  0.89188491    -0.15100
C989        C  0.61946285  0.40382072  0.86345760     0.35500
C990        C  0.59014284  0.38651667  0.84053761    -0.26500
C991        C  0.55079936  0.39566225  0.84528487    -0.15700
C992        C  0.54118848  0.42396296  0.87331992     0.36600
N993        N  0.50148119  0.43351017  0.88035849    -0.90000
H994        H  0.56230150  0.46338498  0.91722759     0.17700
H995        H  0.59833588  0.36505069  0.81917178     0.17700
N996        N  0.65874141  0.39167322  0.85810650    -0.89000
H997        H  0.49838314  0.46332609  0.87572082     0.35100
H998        H  0.49516596  0.42759491  0.90956671     0.40200
H999        H  0.66655983  0.39691542  0.82913232     0.39800
H1000       H  0.65980805  0.36174274  0.86314519     0.34700
C1001       C  0.90818348  0.41793617  0.07150026    -0.27100
C1002       C  0.86804827  0.41107203  0.07605592    -0.15100
C1003       C  0.85577104  0.37928519  0.09975974     0.35500
C1004       C  0.88317846  0.35767611  0.12049077    -0.26500
C1005       C  0.92295721  0.36546171  0.11669317    -0.15700
C1006       C  0.93551637  0.39515675  0.09114422     0.36600
N1007       N  0.97603983  0.40318193  0.08590131    -0.90000
H1008       H  0.91861744  0.44133015  0.05291907     0.17700
H1009       H  0.87328093  0.33423559  0.13932620     0.17700
N1010       N  0.81559591  0.36811063  0.10253900    -0.89000
H1011       H  0.98143311  0.43214021  0.09350302     0.35100
H1012       H  0.98259105  0.39999102  0.05638067     0.40200
H1013       H  0.80758138  0.36828624  0.13187719     0.39800
H1014       H  0.81260304  0.33961823  0.09242005     0.34700
C1015       C  0.85481288  0.38154386  0.88796559    -0.27100
C1016       C  0.86645376  0.41851473  0.90136847    -0.15100
C1017       C  0.90590656  0.43020663  0.89778512     0.35500
C1018       C  0.93286106  0.40383413  0.88304323    -0.26500
C1019       C  0.92129585  0.36632861  0.87184394    -0.15700
C1020       C  0.88181917  0.35538165  0.87363180     0.36600
N1021       N  0.86862076  0.31736171  0.86253941    -0.90000
H1022       H  0.82472441  0.37207880  0.89016964     0.17700
H1023       H  0.96289655  0.41282483  0.87950439     0.17700
N1024       N  0.91845661  0.46867859  0.90876971    -0.89000
H1025       H  0.88357465  0.29697866  0.87915677     0.35100
H1026       H  0.87535492  0.31303586  0.83324058     0.40200
H1027       H  0.90515835  0.48826889  0.88984978     0.39800
H1028       H  0.94843702  0.47219906  0.90485867     0.34700
C1029       C  0.91285325  0.61167960  0.92141688    -0.27100
C1030       C  0.87357720  0.61655416  0.91140571    -0.15100
C1031       C  0.86416241  0.64725826  0.88556484     0.35500
C1032       C  0.89385693  0.66968655  0.86827734    -0.26500
C1033       C  0.93305817  0.66399227  0.87754453    -0.15700
C1034       C  0.94234241  0.63555656  0.90553234     0.36600
N1035       N  0.98168879  0.63004915  0.91748246    -0.90000
H1036       H  0.92098616  0.58915187  0.94176941     0.17700
H1037       H  0.88610197  0.69201850  0.84749454     0.17700
N1038       N  0.82459217  0.65642069  0.87696616    -0.89000
H1039       H  0.98886393  0.60115188  0.91225157     0.35100
H1040       H  0.98325423  0.63472547  0.94750224     0.40200
H1041       H  0.82052861  0.65449395  0.84687467     0.39800
H1042       H  0.81993805  0.68517688  0.88526062     0.34700
C1043       C  0.86595683  0.62621877  0.11273099    -0.27100
C1044       C  0.87578529  0.60469453  0.07974500    -0.15100
C1045       C  0.91409877  0.60729457  0.06499771     0.35500
C1046       C  0.94139835  0.63151742  0.08336674    -0.26500
C1047       C  0.93145551  0.65286212  0.11654482    -0.15700
C1048       C  0.89311971  0.65026910  0.13105788     0.36600
N1049       N  0.88107149  0.67264326  0.16388945    -0.90000
H1050       H  0.83675886  0.62468248  0.12451239     0.17700
H1051       H  0.97066151  0.63294240  0.07182644     0.17700
N1052       N  0.92543358  0.58604549  0.03114852    -0.89000
H1053       H  0.87096452  0.65341708  0.18536852     0.35100
H1054       H  0.85793868  0.69004654  0.15531775     0.40200
H1055       H  0.94845740  0.56810638  0.03887213     0.39800
H1056       H  0.93567231  0.60594120  0.01037321     0.34700
C1057       C  0.09481417  0.05786709  0.77824303    -0.27100
C1058       C  0.08982059  0.02405719  0.75598326    -0.15100
C1059       C  0.06026165  0.99718169  0.76551818     0.35500
C1060       C  0.03827888  0.00285448  0.79929875    -0.26500
C1061       C  0.04559968  0.03501692  0.82340092    -0.15700
C1062       C  0.07337558  0.06330261  0.81217954     0.36600
N1063       N  0.08255907  0.09598102  0.83634550    -0.90000
H1064       H  0.11738341  0.07882963  0.77060926     0.17700
H1065       H  0.01751907  0.98060113  0.80832524     0.17700
N1066       N  0.05446011  0.96287906  0.74264127    -0.89000
H1067       H  0.09165200  0.08568338  0.86343840     0.35100
H1068       H  0.05718779  0.11177023  0.84044932     0.40200
H1069       H  0.02560297  0.96229766  0.73312384     0.39800
H1070       H  0.05856486  0.93873679  0.76062669     0.34700
C1071       C  0.06501293  0.01309295  0.18067344    -0.27100
C1072       C  0.08025055  0.03824175  0.15167294    -0.15100
C1073       C  0.10970908  0.06492078  0.16214413     0.35500
C1074       C  0.12510919  0.06400209  0.20023573    -0.26500
C1075       C  0.11158858  0.03671717  0.22817593    -0.15700
C1076       C  0.08031194  0.01212151  0.21841060     0.36600
N1077       N  0.06551794  0.98427865  0.24590106    -0.90000
H1078       H  0.04157657  0.99288709  0.17381066     0.17700
H1079       H  0.14900549  0.08350172  0.20749477     0.17700
N1080       N  0.12554672  0.09133980  0.13384684    -0.89000
H1081       H  0.06881755  0.95655526  0.23414104     0.35100
H1082       H  0.03580035  0.98907900  0.24945914     0.40200
H1083       H  0.15523729  0.08594102  0.13114523     0.39800
H1084       H  0.12249591  0.11954634  0.14445771     0.34700
C1085       C  0.24204662  0.53695213  0.20640785    -0.27100
C1086       C  0.22267137  0.51076102  0.18187866    -0.15100
C1087       C  0.19216622  0.48738301  0.19700304     0.35500
C1088       C  0.18285938  0.48950848  0.23641611    -0.26500
C1089       C  0.20376239  0.51398776  0.26207026    -0.15700
C1090       C  0.23311637  0.53864637  0.24615505     0.36600
N1091       N  0.25421389  0.56542673  0.27032549    -0.90000
H1092       H  0.26463625  0.55595040  0.19476807     0.17700
H1093       H  0.15831222  0.47224048  0.24589524     0.17700
N1094       N  0.16876315  0.46252194  0.17278517    -0.89000
H1095       H  0.28379036  0.55925393  0.26807953     0.35100
H1096       H  0.25002532  0.59343832  0.25944856     0.40200
H1097       H  0.18606173  0.44059358  0.16148591     0.39800
H1098       H  0.15759926  0.47900691  0.14988710     0.34700
C1099       C  0.27781795  0.46880749  0.39194286    -0.27100
C1100       C  0.25555666  0.50215657  0.39827220    -0.15100
C1101       C  0.26546910  0.52732384  0.42892509     0.35500
C1102       C  0.29853557  0.51997136  0.45141513    -0.26500
C1103       C  0.32226044  0.48828264  0.44315978    -0.15700
C1104       C  0.31128916  0.46173225  0.41406649     0.10200
N1105       N  0.33575320  0.42942779  0.40531185    -0.90000
H1106       H  0.27004937  0.44923115  0.36846454     0.17700
H1107       H  0.30770733  0.54109920  0.47301035     0.17700
N1108       N  0.24442718  0.56232906  0.43480747    -0.89000
H1109       H  0.32405898  0.41309872  0.38240792     0.35100
H1110       H  0.33584084  0.41124718  0.42974112     0.40200
H1111       H  0.26378039  0.58574302  0.43105706     0.39800
H1112       H  0.23466970  0.56263039  0.46361992     0.34700
C1113       C  0.80961472  0.48177649  0.22447342    -0.27100
C1114       C  0.79456476  0.50880681  0.25087495    -0.15100
C1115       C  0.76826050  0.53684407  0.23669055     0.35500
C1116       C  0.75605445  0.53590727  0.19787444    -0.26500
C1117       C  0.76952199  0.50758766  0.17233975    -0.15700
C1118       C  0.79706788  0.48050186  0.18588517     0.36600
N1119       N  0.81327069  0.45144662  0.16123301    -0.90000
H1120       H  0.83023838  0.46028020  0.23333207     0.17700
H1121       H  0.73542713  0.55721507  0.18782771     0.17700
N1122       N  0.75278545  0.56568769  0.26211684    -0.89000
H1123       H  0.82567669  0.46501670  0.13688583     0.35100
H1124       H  0.79103645  0.43247893  0.15245341     0.40200
H1125       H  0.72252353  0.56251675  0.26244206     0.39800
H1126       H  0.75968932  0.59304891  0.25055652     0.34700
C1127       C  0.71766123  0.51612103  0.40287871    -0.27100
C1128       C  0.72818219  0.48748740  0.37670701    -0.15100
C1129       C  0.70109544  0.45719697  0.36767132     0.35500
C1130       C  0.66315231  0.45822398  0.38281577    -0.26500
C1131       C  0.65150324  0.48885698  0.40656159    -0.15700
C1132       C  0.67996934  0.51738747  0.41774895     0.36600
N1133       N  0.67091301  0.54843073  0.44379106    -0.90000
H1134       H  0.73813757  0.53927885  0.41000632     0.17700
H1135       H  0.64241253  0.43562646  0.37488932     0.17700
N1136       N  0.71100948  0.42504429  0.34324985    -0.89000
H1137       H  0.67557351  0.57475208  0.42913666     0.35100
H1138       H  0.69021952  0.54752977  0.46726273     0.40200
H1139       H  0.74058256  0.42509284  0.33656637     0.39800
H1140       H  0.69571591  0.42792806  0.31713392     0.34700
C1141       C  0.90355608  0.96559783  0.81495763    -0.27100
C1142       C  0.89037204  0.99015313  0.84468046    -0.15100
C1143       C  0.86437373  0.01985176  0.83535447     0.35500
C1144       C  0.85316412  0.02581352  0.79681133    -0.26500
C1145       C  0.86602196  0.00162384  0.76676195    -0.15700
C1146       C  0.89098609  0.97076010  0.77607767     0.36600
N1147       N  0.90269479  0.94412465  0.74656534    -0.90000
H1148       H  0.92439835  0.94326588  0.82166476     0.17700
H1149       H  0.83334214  0.04916559  0.79041317     0.17700
N1150       N  0.84975738  0.04457373  0.86533853    -0.89000
H1151       H  0.89359683  0.91627186  0.75507862     0.35100
H1152       H  0.93305038  0.94446270  0.74540604     0.40200
H1153       H  0.81945074  0.04202065  0.86550844     0.39800
H1154       H  0.85721901  0.07330331  0.85835297     0.34700
C1155       C  0.91644364  0.96183404  0.18019219    -0.27100
C1156       C  0.94181524  0.99160832  0.16834141    -0.15100
C1157       C  0.94676211  0.02512662  0.19172238     0.35500
C1158       C  0.92313233  0.02978598  0.22441662    -0.26500
C1159       C  0.89504093  0.00172512  0.23413295    -0.15700
C1160       C  0.89262730  0.96664132  0.21288637     0.36600
N1161       N  0.86451171  0.93708384  0.22326081    -0.90000
H1162       H  0.91264656  0.93642389  0.16194081     0.17700
H1163       H  0.92523522  0.05644392  0.24104146     0.17700
N1164       N  0.97385464  0.05584878  0.18188762    -0.89000
H1165       H  0.86626386  0.91342727  0.20435889     0.35100
H1166       H  0.87156471  0.92674507  0.25094139     0.40200
H1167       H  0.99027163  0.04891735  0.15739873     0.39800
H1168       H  0.99361683  0.05838781  0.20489109     0.34700
C1169       C  0.21782666  0.54611739  0.79907382    -0.27100
C1170       C  0.21360134  0.51110414  0.81987216    -0.15100
C1171       C  0.19660802  0.47888743  0.80048364     0.35500
C1172       C  0.18597030  0.48187738  0.76100201    -0.26500
C1173       C  0.19169008  0.51659789  0.73958593    -0.15700
C1174       C  0.20747972  0.54907269  0.75966337     0.36600
N1175       N  0.21468923  0.58502992  0.73966020    -0.90000
H1176       H  0.23028058  0.57153083  0.81312228     0.17700
H1177       H  0.17455421  0.45594986  0.74751224     0.17700
N1178       N  0.18994104  0.44284820  0.82052531    -0.89000
H1179       H  0.24437851  0.59162626  0.74165176     0.35100
H1180       H  0.19950295  0.60681719  0.75401424     0.40200
H1181       H  0.20514400  0.42120382  0.80596899     0.39800
H1182       H  0.16029053  0.43598648  0.81882664     0.34700
C1183       C  0.29148943  0.55994740  0.63107514    -0.27100
C1184       C  0.26264083  0.53566397  0.61427149    -0.15100
C1185       C  0.27160878  0.51540505  0.58009417     0.35500
C1186       C  0.30898467  0.51889561  0.56415999    -0.26500
C1187       C  0.33891808  0.54019684  0.58294644    -0.15700
C1188       C  0.32988747  0.56120087  0.61674379     0.36600
N1189       N  0.36014005  0.58041570  0.63850641    -0.90000
H1190       H  0.28472050  0.57604727  0.65718857     0.17700
H1191       H  0.31535781  0.50235112  0.53820782     0.17700
N1192       N  0.24418083  0.48862644  0.56329237    -0.89000
H1193       H  0.34908632  0.59186940  0.66432113     0.35100
H1194       H  0.37017131  0.60400582  0.62194812     0.40200
H1195       H  0.24001961  0.49647901  0.53418106     0.39800
H1196       H  0.25632667  0.46097327  0.56384557     0.34700
C1197       C  0.80208543  0.53994602  0.75929525    -0.27100
C1198       C  0.78448392  0.51281912  0.73392730    -0.15100
C1199       C  0.75775925  0.48535407  0.74983635     0.35500
C1200       C  0.74756629  0.48727978  0.78924359    -0.26500
C1201       C  0.76368796  0.51594151  0.81350043    -0.15700
C1202       C  0.79198671  0.54185417  0.79862434     0.36600
N1203       N  0.81137386  0.56932372  0.82376446    -0.90000
H1204       H  0.82451153  0.55966045  0.74962860     0.17700
H1205       H  0.72675737  0.46632681  0.80086130     0.17700
N1206       N  0.74085473  0.45541004  0.72607804    -0.89000
H1207       H  0.83071704  0.58709230  0.80809854     0.35100
H1208       H  0.82813506  0.55357600  0.84349976     0.40200
H1209       H  0.71064798  0.45810728  0.72698022     0.39800
H1210       H  0.74783267  0.42855871  0.73831339     0.34700
C1211       C  0.72606687  0.49584499  0.56855121    -0.27100
C1212       C  0.73263294  0.52358527  0.59759112    -0.15100
C1213       C  0.70827681  0.55595408  0.60040307     0.35500
C1214       C  0.67651979  0.55909554  0.57541631    -0.26500
C1215       C  0.66778984  0.52966225  0.54885354    -0.15700
C1216       C  0.69306138  0.49794935  0.54466390     0.36600
N1217       N  0.68357715  0.46676278  0.51843440    -0.90000
H1218       H  0.74503108  0.47107498  0.56652794     0.17700
H1219       H  0.65654649  0.58283893  0.57932551     0.17700
N1220       N  0.71474700  0.58487293  0.62965874    -0.89000
H1221       H  0.70408141  0.44473853  0.52052502     0.35100
H1222       H  0.68552749  0.47772840  0.49013610     0.40200
H1223       H  0.69003495  0.58570658  0.64733573     0.39800
H1224       H  0.71775006  0.61182735  0.61581245     0.34700
C1225       C  0.95579398  0.32531670  0.26785918    -0.27100
C1226       C  0.98713946  0.31655499  0.24327882    -0.15100
C1227       C  0.02013886  0.29864489  0.25990325     0.35500
C1228       C  0.02054664  0.28860530  0.29931070    -0.26500
C1229       C  0.98862139  0.29565084  0.32329854    -0.15700
C1230       C  0.95630025  0.31538797  0.30763640     0.36600
N1231       N  0.92412537  0.32548652  0.33208912    -0.90000
H1232       H  0.93016379  0.33883092  0.25637311     0.17700
H1233       H  0.04581976  0.27410065  0.31085066     0.17700
N1234       N  0.05318830  0.28943678  0.23647633    -0.89000
H1235       H  0.90245324  0.33921424  0.31602843     0.35100
H1236       H  0.93452647  0.34592636  0.35205256     0.40200
H1237       H  0.05758534  0.25950115  0.23814538     0.39800
H1238       H  0.07755285  0.30357132  0.24828105     0.34700
C1239       C  0.96795723  0.26524645  0.70769610    -0.27100
C1240       C  0.99885685  0.27874785  0.68432375    -0.15100
C1241       C  0.02818497  0.30222578  0.70144143     0.35500
C1242       C  0.02566995  0.31207449  0.74058156    -0.26500
C1243       C  0.99393489  0.30020753  0.76393146    -0.15700
C1244       C  0.96521055  0.27572212  0.74702979     0.36600
N1245       N  0.93303945  0.26147630  0.76969551    -0.90000
H1246       H  0.94540843  0.24680886  0.69525648     0.17700
H1247       H  0.04969298  0.32884497  0.75179183     0.17700
N1248       N  0.06056794  0.31768965  0.67985947    -0.89000
H1249       H  0.93332054  0.23112526  0.76915019     0.35100
H1250       H  0.90739700  0.27053647  0.75636342     0.40200
H1251       H  0.05023598  0.33374540  0.65625301     0.39800
H1252       H  0.07747589  0.29480878  0.66992448     0.34700
C1253       C  0.85837751  0.38865139  0.41588592    -0.27100
C1254       C  0.89909014  0.39066220  0.41378437    -0.15100
C1255       C  0.91717776  0.41863144  0.38934027     0.35500
C1256       C  0.89395558  0.44402816  0.36757904    -0.26500
C1257       C  0.85337165  0.44262697  0.37085306    -0.15700
C1258       C  0.83546821  0.41465184  0.39489821     0.36600
N1259       N  0.79397185  0.41202473  0.39727567    -0.90000
H1260       H  0.84429777  0.36681342  0.43402682     0.17700
H1261       H  0.90748153  0.46553164  0.34865073     0.17700
N1262       N  0.95877020  0.42003877  0.38542878    -0.89000
H1263       H  0.78593016  0.41555864  0.42637580     0.35100
H1264       H  0.78531105  0.38414704  0.38857020     0.40200
H1265       H  0.97035411  0.42935800  0.41198026     0.39800
H1266       H  0.96713563  0.44093684  0.36480837     0.34700
C1267       C  0.85938115  0.37752777  0.60556903    -0.27100
C1268       C  0.89469737  0.38943287  0.58799882    -0.15100
C1269       C  0.90388189  0.42961462  0.58637140     0.35500
C1270       C  0.87777671  0.45659157  0.60128070    -0.26500
C1271       C  0.84310833  0.44448570  0.61913170    -0.15700
C1272       C  0.83365185  0.40469323  0.62137147     0.36600
N1273       N  0.79798647  0.39215309  0.63958978    -0.90000
H1274       H  0.85160545  0.34695960  0.60685109     0.17700
H1275       H  0.88538485  0.48723928  0.60012612     0.17700
N1276       N  0.94013588  0.44333623  0.57066107    -0.89000
H1277       H  0.79521830  0.36189238  0.63876101     0.35100
H1278       H  0.77502244  0.40318132  0.62319868     0.40200
H1279       H  0.95483468  0.45889894  0.59236795     0.39800
H1280       H  0.93423069  0.46244918  0.54777962     0.34700
C1281       C  0.08951002  0.43277564  0.57486866    -0.27100
C1282       C  0.09835818  0.39357045  0.58164190    -0.15100
C1283       C  0.13285020  0.38518093  0.60236654     0.35500
C1284       C  0.15632316  0.41568334  0.61691622    -0.26500
C1285       C  0.14638204  0.45478887  0.61151338    -0.15700
C1286       C  0.11261826  0.46306859  0.58969492     0.36600
N1287       N  0.09913030  0.50176376  0.58445326    -0.90000
H1288       H  0.06351746  0.44032460  0.55892539     0.17700
H1289       H  0.18190626  0.40870215  0.63380332     0.17700
N1290       N  0.14407449  0.34587579  0.60937812    -0.89000
H1291       H  0.12011313  0.51792107  0.56930322     0.35100
H1292       H  0.09470567  0.51375079  0.61191876     0.40200
H1293       H  0.17178505  0.34207681  0.59764271     0.39800
H1294       H  0.14575380  0.34160307  0.63947234     0.34700
C1295       C  0.14360357  0.41515326  0.37193997    -0.27100
C1296       C  0.13782694  0.45415104  0.38189242    -0.15100
C1297       C  0.10972329  0.46296662  0.41010274     0.35500
C1298       C  0.08732742  0.43303241  0.42707645    -0.26500
C1299       C  0.09201491  0.39399995  0.41620481    -0.15700
C1300       C  0.12085029  0.38520920  0.38823287     0.36600
N1301       N  0.12683074  0.34616361  0.37544330    -0.90000
H1302       H  0.16565609  0.40777412  0.35080471     0.17700
H1303       H  0.06576526  0.44070335  0.44858409     0.17700
N1304       N  0.10271802  0.50236549  0.42072105    -0.89000
H1305       H  0.15573335  0.33903016  0.38100614     0.35100
H1306       H  0.12240191  0.34518462  0.34534448     0.40200
H1307       H  0.10729468  0.50507720  0.45067797     0.39800
H1308       H  0.07350948  0.50817697  0.41511510     0.34700
C1309       C  0.06098485  0.11742357  0.62086377    -0.27100
C1310       C  0.08298232  0.13368036  0.59062459    -0.15100
C1311       C  0.12144735  0.12162579  0.58417500     0.35500
C1312       C  0.13645791  0.09235569  0.60782665    -0.26500
C1313       C  0.11491969  0.07695076  0.63930692    -0.15700
C1314       C  0.07708702  0.09043143  0.64622590     0.36600
N1315       N  0.05566913  0.07877184  0.68013836    -0.90000
H1316       H  0.03166463  0.12732429  0.62609266     0.17700
H1317       H  0.16541321  0.08209605  0.60173638     0.17700
N1318       N  0.14623694  0.13882663  0.55491126    -0.89000
H1319       H  0.02928595  0.06633873  0.67109788     0.35100
H1320       H  0.04952412  0.10362203  0.69629433     0.40200
H1321       H  0.13222444  0.16068811  0.53946380     0.39800
H1322       H  0.15305891  0.11719120  0.53487340     0.34700
C1323       C  0.89107797  0.10024858  0.58140047    -0.27100
C1324       C  0.91005720  0.13117765  0.60033746    -0.15100
C1325       C  0.91064016  0.13177626  0.64156134     0.35500
C1326       C  0.89160095  0.10178836  0.66277686    -0.26500
C1327       C  0.87173270  0.07150719  0.64364657    -0.15700
C1328       C  0.87146957  0.07096594  0.60258410     0.36600
N1329       N  0.85066916  0.04099550  0.58219907    -0.90000
H1330       H  0.89040728  0.09941834  0.54986666     0.17700
H1331       H  0.89153685  0.10245135  0.69430673     0.17700
N1332       N  0.93070620  0.16264948  0.66167939    -0.89000
H1333       H  0.87016394  0.02712592  0.56370788     0.35100
H1334       H  0.82962290  0.05415466  0.56485592     0.40200
H1335       H  0.96029028  0.16050381  0.65523320     0.39800
H1336       H  0.92800985  0.15913771  0.69180438     0.34700
C1337       C  0.88213529  0.14747620  0.37078871    -0.27100
C1338       C  0.90566968  0.13512694  0.40199845    -0.15100
C1339       C  0.91047193  0.09442094  0.40725708     0.35500
C1340       C  0.89452174  0.06822175  0.38028417    -0.26500
C1341       C  0.87220694  0.08089262  0.34874008    -0.15700
C1342       C  0.86505723  0.12086855  0.34471718     0.36600
N1343       N  0.84072515  0.13469022  0.31397288    -0.90000
H1344       H  0.87688074  0.17809433  0.36624946     0.17700
H1345       H  0.89874256  0.03739413  0.38474900     0.17700
N1346       N  0.93038178  0.07828779  0.44000534    -0.89000
H1347       H  0.85679720  0.15464944  0.29730278     0.35100
H1348       H  0.81751416  0.14935451  0.32656146     0.40200
H1349       H  0.91747693  0.08823200  0.46559133     0.39800
H1350       H  0.95963749  0.08674683  0.43900884     0.34700
C1351       C  0.08470699  0.14450233  0.36292471    -0.27100
C1352       C  0.08218307  0.13844013  0.40334316    -0.15100
C1353       C  0.09979475  0.10551086  0.41998941     0.35500
C1354       C  0.11927633  0.07929181  0.39569325    -0.26500
C1355       C  0.12009607  0.08470414  0.35520633    -0.15700
C1356       C  0.10281729  0.11748359  0.33877485     0.36600
N1357       N  0.10386455  0.12343061  0.29751466    -0.90000
H1358       H  0.07162687  0.16984187  0.34985706     0.17700
H1359       H  0.13324426  0.05416013  0.40819222     0.17700
N1360       N  0.09810495  0.09901605  0.46131733    -0.89000
H1361       H  0.11791663  0.15000579  0.29202157     0.35100
H1362       H  0.07525157  0.12534448  0.28755192     0.40200
H1363       H  0.11334734  0.12175467  0.47474669     0.39800
H1364       H  0.11237237  0.07344995  0.46877225     0.34700
C1365       C  0.96159711  0.71469882  0.25445111    -0.27100
C1366       C  0.99376517  0.72480777  0.23087097    -0.15100
C1367       C  0.02345892  0.74883138  0.24755173     0.35500
C1368       C  0.02165602  0.75868827  0.28696603    -0.26500
C1369       C  0.99006953  0.74717822  0.31031000    -0.15700
C1370       C  0.95956904  0.72535686  0.29348221     0.36600
N1371       N  0.92622093  0.71361100  0.31582531    -0.90000
H1372       H  0.93636502  0.69983518  0.24305338     0.17700
H1373       H  0.04495843  0.77627311  0.29925115     0.17700
N1374       N  0.05513125  0.76513402  0.22544499    -0.89000
H1375       H  0.92391004  0.68330825  0.31506773     0.35100
H1376       H  0.90153892  0.72498813  0.30249460     0.40200
H1377       H  0.04445669  0.78131112  0.20216456     0.39800
H1378       H  0.07301889  0.74325267  0.21527226     0.34700
C1379       C  0.02800765  0.73590470  0.69219170    -0.27100
C1380       C  0.99275681  0.73294885  0.67186563    -0.15100
C1381       C  0.96062090  0.71493329  0.69033516     0.35500
C1382       C  0.96367770  0.70246266  0.72898729    -0.26500
C1383       C  0.99836536  0.70738295  0.75041659    -0.15700
C1384       C  0.03146231  0.72309109  0.73054675     0.36600
N1385       N  0.06915762  0.72703378  0.74812680    -0.90000
H1386       H  0.05347724  0.74856259  0.67826336     0.17700
H1387       H  0.93769787  0.69030044  0.74175252     0.17700
N1388       N  0.92456399  0.70908776  0.67015723    -0.89000
H1389       H  0.08003567  0.69965760  0.75451188     0.35100
H1390       H  0.06799882  0.74384561  0.77324499     0.40200
H1391       H  0.90280405  0.72329892  0.68557544     0.39800
H1392       H  0.91792066  0.67935533  0.67024638     0.34700
C1393       C  0.10383540  0.57955701  0.37241249    -0.27100
C1394       C  0.14415338  0.58566658  0.37407413    -0.15100
C1395       C  0.15888298  0.62053149  0.38988809     0.35500
C1396       C  0.13309854  0.64822770  0.40463807    -0.26500
C1397       C  0.09269105  0.64127950  0.40465982    -0.15700
C1398       C  0.07807127  0.60645236  0.38806014     0.36600
N1399       N  0.03724475  0.59804935  0.38556670    -0.90000
H1400       H  0.09226580  0.55336992  0.35904589     0.17700
H1401       H  0.14481844  0.67481119  0.41709931     0.17700
N1402       N  0.19989030  0.62788036  0.39120239    -0.89000
H1403       H  0.02369483  0.62121900  0.37158722     0.35100
H1404       H  0.02593213  0.59497393  0.41362886     0.40200
H1405       H  0.20757542  0.63286077  0.42022433     0.39800
H1406       H  0.20573531  0.65343633  0.37563234     0.34700
C1407       C  0.13133261  0.63456992  0.56795074    -0.27100
C1408       C  0.09179009  0.63846007  0.57708459    -0.15100
C1409       C  0.07586498  0.61722366  0.60844175     0.35500
C1410       C  0.09924874  0.59103056  0.62902239    -0.26500
C1411       C  0.13837979  0.58568952  0.61897244    -0.15700
C1412       C  0.15481217  0.60821890  0.58851551     0.36600
N1413       N  0.19531414  0.60474547  0.57907487    -0.90000
H1414       H  0.14382317  0.65210308  0.54473872     0.17700
H1415       H  0.08668953  0.57417889  0.65267658     0.17700
N1416       N  0.03610381  0.62291132  0.61964033    -0.89000
H1417       H  0.21136615  0.61369546  0.60337146     0.35100
H1418       H  0.20294056  0.62359075  0.55631850     0.40200
H1419       H  0.03377493  0.65143893  0.62965191     0.39800
H1420       H  0.02860961  0.60480847  0.64302986     0.34700
C1421       C  0.91211212  0.61073115  0.60871565    -0.27100
C1422       C  0.89784395  0.62821030  0.57484635    -0.15100
C1423       C  0.86198882  0.61542624  0.55915974     0.35500
C1424       C  0.83951079  0.58792467  0.57941009    -0.26500
C1425       C  0.85277877  0.57195401  0.61449401    -0.15700
C1426       C  0.88992783  0.58248209  0.62854151     0.36600
N1427       N  0.90537061  0.56415072  0.66256084    -0.90000
H1428       H  0.94034579  0.61935489  0.62001858     0.17700
H1429       H  0.81138625  0.57930741  0.56784769     0.17700
N1430       N  0.84817158  0.62942636  0.52246122    -0.89000
H1431       H  0.91177279  0.58575013  0.68300060     0.35100
H1432       H  0.93135548  0.55082470  0.65487836     0.40200
H1433       H  0.86878914  0.62280387  0.50124548     0.39800
H1434       H  0.84592968  0.65962171  0.52395907     0.34700
C1435       C  0.89175875  0.59390515  0.42142170    -0.27100
C1436       C  0.88643312  0.63316783  0.41116909    -0.15100
C1437       C  0.85636377  0.64163728  0.38432747     0.35500
C1438       C  0.83469431  0.61130078  0.36684176    -0.26500
C1439       C  0.84108085  0.57213179  0.37611818    -0.15700
C1440       C  0.86957682  0.56366732  0.40437227     0.36600
N1441       N  0.87759808  0.52430958  0.41469856    -0.90000
H1442       H  0.91388529  0.58625826  0.44239990     0.17700
H1443       H  0.81264675  0.61854680  0.34561191     0.17700
N1444       N  0.84748419  0.68094142  0.37442503    -0.89000
H1445       H  0.87342290  0.52115159  0.44469031     0.35100
H1446       H  0.90684644  0.51915208  0.40868249     0.40200
H1447       H  0.81844564  0.68572872  0.38168951     0.39800
H1448       H  0.85033433  0.68420791  0.34429757     0.34700
C1449       C  0.12213426  0.91719594  0.34354273    -0.27100
C1450       C  0.11060871  0.95615119  0.34526045    -0.15100
C1451       C  0.08041430  0.96560192  0.37142958     0.35500
C1452       C  0.06313422  0.93655523  0.39522457    -0.26500
C1453       C  0.07547102  0.89776061  0.39416825    -0.15700
C1454       C  0.10572230  0.88845300  0.36790559     0.36600
N1455       N  0.12089402  0.84996158  0.36635604    -0.90000
H1456       H  0.14493556  0.90889329  0.32362166     0.17700
H1457       H  0.03999257  0.94464245  0.41483782     0.17700
N1458       N  0.06773701  0.00476915  0.37510025    -0.89000
H1459       H  0.15064872  0.85152032  0.37244349     0.35100
H1460       H  0.11739435  0.83953853  0.33800068     0.40200
H1461       H  0.03819309  0.00542400  0.36810033     0.39800
H1462       H  0.07067678  0.01288943  0.40425808     0.34700
C1463       C  0.92576252  0.90644270  0.36417303    -0.27100
C1464       C  0.90646064  0.89272568  0.39740568    -0.15100
C1465       C  0.87026479  0.90787625  0.40784016     0.35500
C1466       C  0.85383362  0.93686297  0.38450621    -0.26500
C1467       C  0.87286915  0.95061457  0.35081805    -0.15700
C1468       C  0.90904731  0.93480376  0.34043787     0.36600
N1469       N  0.92826001  0.94613542  0.30513176    -0.90000
H1470       H  0.95363973  0.89453085  0.35621860     0.17700
H1471       H  0.82626928  0.94907118  0.39293529     0.17700
N1472       N  0.85087587  0.89436094  0.44250457    -0.89000
H1473       H  0.93225349  0.92126328  0.28830220     0.35100
H1474       H  0.95571776  0.95737635  0.31229174     0.40200
H1475       H  0.84395475  0.86496374  0.43870962     0.39800
H1476       H  0.82455184  0.90866252  0.44620985     0.34700
C1477       C  0.87914114  0.87674746  0.62167995    -0.27100
C1478       C  0.90642434  0.88978436  0.59385000    -0.15100
C1479       C  0.91574522  0.93007055  0.59246366     0.35500
C1480       C  0.89588655  0.95604549  0.61654170    -0.26500
C1481       C  0.86763953  0.94288011  0.64300637    -0.15700
C1482       C  0.86045227  0.90250961  0.64659325     0.36600
N1483       N  0.83604599  0.88650745  0.67658650    -0.90000
H1484       H  0.87243501  0.84605302  0.62470108     0.17700
H1485       H  0.90273490  0.98677907  0.61451545     0.17700
N1486       N  0.94596774  0.94489236  0.56761552    -0.89000
H1487       H  0.80749330  0.89522313  0.67224051     0.35100
H1488       H  0.84575290  0.89701625  0.70343555     0.40200
H1489       H  0.96688530  0.95866085  0.58506914     0.39800
H1490       H  0.93404225  0.96581208  0.54920871     0.34700
C1491       C  0.07253180  0.92948621  0.58676777    -0.27100
C1492       C  0.07573526  0.88986179  0.59612694    -0.15100
C1493       C  0.09717270  0.87951471  0.62987897     0.35500
C1494       C  0.11538311  0.90843893  0.65235292    -0.26500
C1495       C  0.11212302  0.94766803  0.64263197    -0.15700
C1496       C  0.09056840  0.95826254  0.60950309     0.36600
N1497       N  0.08810522  0.99812824  0.59789527    -0.90000
H1498       H  0.05639491  0.93843337  0.56127852     0.17700
H1499       H  0.13166570  0.90017829  0.67801700     0.17700
N1500       N  0.10022913  0.83986389  0.64207960    -0.89000
H1501       H  0.05876024  0.00548181  0.59674561     0.35100
H1502       H  0.09963227  0.00089892  0.56985037     0.40200
H1503       H  0.08887266  0.83740383  0.67022995     0.39800
H1504       H  0.12969427  0.83297286  0.64325518     0.34700
C1505       C  0.22590058  0.81752780  0.52459206    -0.27100
C1506       C  0.24891356  0.81153178  0.49147557    -0.15100
C1507       C  0.23101444  0.79604379  0.45754893     0.35500
C1508       C  0.19183859  0.78518142  0.45815900    -0.26500
C1509       C  0.16958552  0.78944356  0.49189154    -0.15700
C1510       C  0.18674243  0.80644053  0.52523105     0.36600
N1511       N  0.16472794  0.81249328  0.56006962    -0.90000
H1512       H  0.23779022  0.82967034  0.55092724     0.17700
H1513       H  0.17907649  0.77262731  0.43214463     0.17700
N1514       N  0.25295872  0.78984999  0.42268927    -0.89000
H1515       H  0.16581003  0.84209287  0.56675758     0.35100
H1516       H  0.17799346  0.79732682  0.58276172     0.40200
H1517       H  0.25122768  0.76030900  0.41582492     0.39800
H1518       H  0.23991243  0.80533557  0.40009245     0.34700
C1519       C  0.40402291  0.73490255  0.49747311    -0.27100
C1520       C  0.37271863  0.74319384  0.47351529    -0.15100
C1521       C  0.35999187  0.71512308  0.44602246     0.35500
C1522       C  0.37626669  0.67779378  0.44596450    -0.26500
C1523       C  0.40558929  0.66843590  0.47250375    -0.15700
C1524       C  0.42087757  0.69831030  0.49690990     0.36600
N1525       N  0.45369843  0.69177330  0.52154098    -0.90000
H1526       H  0.41453623  0.75638230  0.51810308     0.17700
H1527       H  0.36508961  0.65592032  0.42613532     0.17700
N1528       N  0.33054924  0.72446481  0.41821413    -0.89000
H1529       H  0.44528942  0.69650641  0.55036553     0.35100
H1530       H  0.47511689  0.71244842  0.51449464     0.40200
H1531       H  0.34211313  0.72062333  0.39037344     0.39800
H1532       H  0.30745005  0.70469998  0.42171505     0.34700
C1533       C  0.22761786  0.20405759  0.46849721    -0.27100
C1534       C  0.25483791  0.21964292  0.49503325    -0.15100
C1535       C  0.24151298  0.24750676  0.52210683     0.35500
C1536       C  0.20236262  0.25886833  0.52215397    -0.26500
C1537       C  0.17566518  0.24355794  0.49521818    -0.15700
C1538       C  0.18895728  0.21599810  0.46785381     0.36600
N1539       N  0.16375041  0.19850803  0.43949011    -0.90000
H1540       H  0.23558597  0.18264184  0.44734086     0.17700
H1541       H  0.19288971  0.28003620  0.54328208     0.17700
N1542       N  0.26794187  0.26488612  0.54941105    -0.89000
H1543       H  0.15412148  0.21990903  0.42031506     0.35100
H1544       H  0.14004805  0.18574090  0.45386046     0.40200
H1545       H  0.25735650  0.25949662  0.57746046     0.39800
H1546       H  0.26820789  0.29491592  0.54479096     0.34700
C1547       C  0.43592533  0.31834412  0.50816660    -0.27100
C1548       C  0.43832357  0.33884338  0.47276796    -0.15100
C1549       C  0.41900929  0.32388994  0.43982016     0.35500
C1550       C  0.39484512  0.29066506  0.44367254    -0.26500
C1551       C  0.39079055  0.27181117  0.47984072    -0.15700
C1552       C  0.41255230  0.28489003  0.51179629     0.36600
N1553       N  0.40916250  0.26543089  0.54858607    -0.90000
H1554       H  0.45052285  0.32971336  0.53377484     0.17700
H1555       H  0.37845227  0.28023039  0.41878286     0.17700
N1556       N  0.42228969  0.34347585  0.40312521    -0.89000
H1557       H  0.43683833  0.25649111  0.55694314     0.35100
H1558       H  0.39938046  0.28537591  0.56912904     0.40200
H1559       H  0.43300014  0.32375924  0.38283155     0.39800
H1560       H  0.39444525  0.35140621  0.39425691     0.34700
C1561       C  0.71423022  0.31332429  0.95710252    -0.27100
C1562       C  0.71160746  0.33525528  0.99122943    -0.15100
C1563       C  0.69631109  0.31749672  0.02525212     0.35500
C1564       C  0.68607027  0.27810174  0.02497336    -0.26500
C1565       C  0.69042032  0.25552594  0.99127743    -0.15700
C1566       C  0.70376237  0.27399654  0.95677123     0.36600
N1567       N  0.70814485  0.25244359  0.92144998    -0.90000
H1568       H  0.72527979  0.32641869  0.93052112     0.17700
H1569       H  0.67609228  0.26571441  0.05204794     0.17700
N1570       N  0.69116223  0.33910830  0.06045669    -0.89000
H1571       H  0.73728317  0.25424456  0.91293834     0.35100
H1572       H  0.69136671  0.26559844  0.89988311     0.40200
H1573       H  0.70750083  0.32606527  0.08243624     0.39800
H1574       H  0.66184533  0.33736179  0.06835997     0.34700
C1575       C  0.80735484  0.08325671  0.99362133    -0.27100
C1576       C  0.83644006  0.10046573  0.97000713    -0.15100
C1577       C  0.82689384  0.13221942  0.94626296     0.35500
C1578       C  0.78931898  0.14779512  0.94890105    -0.26500
C1579       C  0.76119792  0.13218315  0.97481200    -0.15700
C1580       C  0.77015858  0.09881237  0.99634945     0.36600
N1581       N  0.74253497  0.08189385  0.02283898    -0.90000
H1582       H  0.81402840  0.05828580  0.01155854     0.17700
H1583       H  0.78234227  0.17307325  0.93155493     0.17700
N1584       N  0.85553915  0.14938471  0.92082244    -0.89000
H1585       H  0.75466562  0.08211353  0.05073944     0.35100
H1586       H  0.73776540  0.05296891  0.01472996     0.40200
H1587       H  0.87756088  0.16141770  0.93817101     0.39800
H1588       H  0.84362636  0.17232568  0.90504324     0.34700
C1589       C  0.24503349  0.30327494  0.97358707    -0.27100
C1590       C  0.25581290  0.32726091  0.00480102    -0.15100
C1591       C  0.27709912  0.31055465  0.03562679     0.35500
C1592       C  0.28716385  0.27110286  0.03451277    -0.26500
C1593       C  0.27649924  0.24642262  0.00328508    -0.15700
C1594       C  0.25503695  0.26379594  0.97218260     0.36600
N1595       N  0.24344064  0.24292919  0.93792759    -0.90000
H1596       H  0.22885888  0.31542955  0.94950290     0.17700
H1597       H  0.30387571  0.26087342  0.05875709     0.17700
N1598       N  0.28966066  0.33369367  0.06803850    -0.89000
H1599       H  0.22467247  0.22001014  0.94505192     0.35100
H1600       H  0.26781305  0.23256893  0.92352134     0.40200
H1601       H  0.31997362  0.33272735  0.06962905     0.39800
H1602       H  0.27831189  0.32120829  0.09346863     0.34700
C1603       C  0.20847760  0.11608690  0.95168536    -0.27100
C1604       C  0.23085854  0.10813506  0.98486518    -0.15100
C1605       C  0.22184947  0.07525080  0.00763086     0.35500
C1606       C  0.18860447  0.05289501  0.99896771    -0.26500
C1607       C  0.16402815  0.06343996  0.96828088    -0.15700
C1608       C  0.17480041  0.09429275  0.94358263     0.36600
N1609       N  0.14997568  0.10549577  0.91222364    -0.90000
H1610       H  0.21570659  0.14096475  0.93352687     0.17700
H1611       H  0.17994138  0.02958294  0.01857204     0.17700
N1612       N  0.24436777  0.06637805  0.04136810    -0.89000
H1613       H  0.16605213  0.10438737  0.88644254     0.35100
H1614       H  0.14218703  0.13434799  0.91666845     0.40200
H1615       H  0.25448843  0.03805782  0.03847491     0.39800
H1616       H  0.22608021  0.06709304  0.06565232     0.34700
C1617       C  0.78747639  0.77238547  0.52928674    -0.27100
C1618       C  0.80808009  0.77312814  0.49397305    -0.15100
C1619       C  0.78820948  0.78424717  0.45990215     0.35500
C1620       C  0.75015294  0.79746452  0.46234416    -0.26500
C1621       C  0.73044673  0.80089304  0.49816810    -0.15700
C1622       C  0.74932623  0.78586415  0.53190164     0.36600
N1623       N  0.73110882  0.78351034  0.56937412    -0.90000
H1624       H  0.80147651  0.76238979  0.55565613     0.17700
H1625       H  0.73613489  0.80355200  0.43502684     0.17700
N1626       N  0.80621990  0.78225122  0.42234165    -0.89000
H1627       H  0.70416261  0.76942523  0.56706219     0.35100
H1628       H  0.72789895  0.81124622  0.58080809     0.40200
H1629       H  0.80619326  0.81000575  0.40992075     0.39800
H1630       H  0.78933747  0.76390380  0.40474667     0.34700
C1631       C  0.57336468  0.74129820  0.47595256    -0.27100
C1632       C  0.59182658  0.75716572  0.50858161    -0.15100
C1633       C  0.58661506  0.73914150  0.54531109     0.35500
C1634       C  0.56685085  0.70321025  0.54793693    -0.26500
C1635       C  0.55220764  0.68517072  0.51433744    -0.15700
C1636       C  0.55352414  0.70541115  0.47848559     0.36600
N1637       N  0.53622395  0.68833550  0.44437245    -0.90000
H1638       H  0.57677741  0.75553399  0.44795426     0.17700
H1639       H  0.56509202  0.68832540  0.57572655     0.17700
N1640       N  0.60191451  0.75637990  0.58008311    -0.89000
H1641       H  0.53935883  0.70699379  0.42047815     0.35100
H1642       H  0.50637427  0.68537430  0.44946596     0.40200
H1643       H  0.59004573  0.78400655  0.58278905     0.39800
H1644       H  0.63201194  0.75954057  0.57726244     0.34700
C1645       C  0.73435174  0.72180659  0.96702160    -0.27100
C1646       C  0.72365072  0.69641113  0.99753689    -0.15100
C1647       C  0.70139807  0.71169996  0.02849609     0.35500
C1648       C  0.69145813  0.75094241  0.02875571    -0.26500
C1649       C  0.70230391  0.77689294  0.99861190    -0.15700
C1650       C  0.72428897  0.76151232  0.96745944     0.36600
N1651       N  0.73667214  0.78620564  0.93607218    -0.90000
H1652       H  0.75097404  0.71092165  0.94269997     0.17700
H1653       H  0.67502886  0.76005472  0.05355749     0.17700
N1654       N  0.68666841  0.68796149  0.05967782    -0.89000
H1655       H  0.76697955  0.78531683  0.93442961     0.35100
H1656       H  0.72534141  0.77483937  0.91019741     0.40200
H1657       H  0.67055935  0.66484175  0.04794733     0.39800
H1658       H  0.70982531  0.67752843  0.07611917     0.34700
C1659       C  0.75916294  0.94435326  0.98218493    -0.27100
C1660       C  0.75134551  0.91554228  0.01015676    -0.15100
C1661       C  0.77494460  0.91326179  0.04359237     0.35500
C1662       C  0.80761412  0.93771642  0.04727359    -0.26500
C1663       C  0.81739555  0.96409415  0.01775860    -0.15700
C1664       C  0.79256731  0.96814487  0.98537234     0.36600
N1665       N  0.80272311  0.99454613  0.95454609    -0.90000
H1666       H  0.74095116  0.94648478  0.95655061     0.17700
H1667       H  0.82714556  0.93374892  0.07168637     0.17700
N1668       N  0.76641940  0.88520001  0.07333178    -0.89000
H1669       H  0.77969342  0.01364138  0.95070732     0.35100
H1670       H  0.80568742  0.97857002  0.92891247     0.40200
H1671       H  0.76278605  0.90002937  0.09955907     0.39800
H1672       H  0.79044710  0.86719043  0.07625592     0.34700
C1673       C  0.30097307  0.74808586  0.97304549    -0.27100
C1674       C  0.29575328  0.77015958  0.00718648    -0.15100
C1675       C  0.27786183  0.75114705  0.03972035     0.35500
C1676       C  0.26449018  0.71279985  0.03653935    -0.26500
C1677       C  0.26860093  0.69157966  0.00205464    -0.15700
C1678       C  0.28787086  0.70938803  0.97030717     0.36600
N1679       N  0.29471685  0.68828178  0.93513708    -0.90000
H1680       H  0.31361895  0.76067817  0.94717764     0.17700
H1681       H  0.25048819  0.69953542  0.06163044     0.17700
N1682       N  0.27172191  0.76985638  0.07642031    -0.89000
H1683       H  0.32469541  0.68776817  0.93026874     0.35100
H1684       H  0.28188042  0.70326206  0.91207657     0.40200
H1685       H  0.25540406  0.79490112  0.07292906     0.39800
H1686       H  0.29850370  0.77656643  0.08908073     0.34700
C1687       C  0.16938095  0.92877556  0.04188319    -0.27100
C1688       C  0.13936330  0.91145520  0.01997736    -0.15100
C1689       C  0.14809186  0.88151319  0.99393077     0.35500
C1690       C  0.18652590  0.87024531  0.98900527    -0.26500
C1691       C  0.21709063  0.88763434  0.01029913    -0.15700
C1692       C  0.20819204  0.91686176  0.03746251     0.36600
N1693       N  0.23813473  0.93424996  0.06077848    -0.90000
H1694       H  0.16297038  0.95270437  0.06115730     0.17700
H1695       H  0.19248131  0.84763642  0.96805238     0.17700
N1696       N  0.11783266  0.86324131  0.97150457    -0.89000
H1697       H  0.23061792  0.93024283  0.09001362     0.35100
H1698       H  0.23853781  0.96410525  0.05515724     0.40200
H1699       H  0.11779469  0.83349528  0.97770351     0.39800
H1700       H  0.12443601  0.86689730  0.94199777     0.34700
C1701       C  0.29258116  0.98286959  0.26709975    -0.27100
C1702       C  0.31749570  0.01432193  0.27538838    -0.15100
C1703       C  0.30248138  0.04645203  0.29566050     0.35500
C1704       C  0.26302666  0.04738301  0.30538795    -0.26500
C1705       C  0.23742495  0.01652154  0.29614058    -0.15700
C1706       C  0.25283968  0.98403846  0.27633796     0.36600
N1707       N  0.22794498  0.95271677  0.26400629    -0.90000
H1708       H  0.30356116  0.95783125  0.25181195     0.17700
H1709       H  0.25290236  0.07354425  0.31887704     0.17700
N1710       N  0.32717057  0.07841151  0.30685056    -0.89000
H1711       H  0.23808635  0.92704381  0.27645639     0.35100
H1712       H  0.23020523  0.95027561  0.23376309     0.40200
H1713       H  0.32549281  0.08147081  0.33707047     0.39800
H1714       H  0.31644509  0.10368467  0.29408290     0.34700
C1715       C  0.70352063  0.04695938  0.24840719    -0.27100
C1716       C  0.67836547  0.01738041  0.26142185    -0.15100
C1717       C  0.69332717  0.98673435  0.28368808     0.35500
C1718       C  0.73269438  0.98605002  0.29269018    -0.26500
C1719       C  0.75850795  0.01589231  0.28090106    -0.15700
C1720       C  0.74321688  0.04659508  0.25749135     0.36600
N1721       N  0.76671074  0.07785133  0.24216531    -0.90000
H1722       H  0.69228669  0.07054926  0.23094850     0.17700
H1723       H  0.74185084  0.96138518  0.30925555     0.17700
N1724       N  0.66834681  0.95654830  0.29868742    -0.89000
H1725       H  0.78843626  0.06697947  0.22428022     0.35100
H1726       H  0.77902599  0.09396490  0.26475195     0.40200
H1727       H  0.67112144  0.95620179  0.32896288     0.39800
H1728       H  0.67805432  0.92996389  0.28809890     0.34700
C1729       C  0.37109923  0.91050389  0.43563029    -0.27100
C1730       C  0.36885738  0.87019328  0.43044002    -0.15100
C1731       C  0.38699999  0.85312428  0.39831975     0.35500
C1732       C  0.40689356  0.87667617  0.37138601    -0.26500
C1733       C  0.40981091  0.91707589  0.37670407    -0.15700
C1734       C  0.39195306  0.93405404  0.40928789     0.36600
N1735       N  0.39431930  0.97516183  0.41530160    -0.90000
H1736       H  0.35705976  0.92362920  0.46047117     0.17700
H1737       H  0.42055694  0.86327202  0.34647977     0.17700
N1738       N  0.38507577  0.81189937  0.39298094    -0.89000
H1739       H  0.40717133  0.98010442  0.44245132     0.35100
H1740       H  0.36605336  0.98583544  0.41621187     0.40200
H1741       H  0.41347346  0.80154512  0.39251428     0.39800
H1742       H  0.37245627  0.80628692  0.36585661     0.34700
C1743       C  0.58112173  0.85900488  0.41632412    -0.27100
C1744       C  0.61769649  0.86967401  0.43112024    -0.15100
C1745       C  0.63524830  0.90528092  0.41926709     0.35500
C1746       C  0.61602832  0.92883918  0.39223003    -0.26500
C1747       C  0.58010473  0.91746342  0.37676242    -0.15700
C1748       C  0.56210753  0.88257159  0.38911063     0.36600
N1749       N  0.52441219  0.87159241  0.37440650    -0.90000
H1750       H  0.56747223  0.83206720  0.42589443     0.17700
H1751       H  0.62891152  0.95635671  0.38336198     0.17700
N1752       N  0.67193452  0.91785769  0.43525904    -0.89000
H1753       H  0.51506738  0.84526931  0.38673846     0.35100
H1754       H  0.52712512  0.86678586  0.34450245     0.40200
H1755       H  0.66799553  0.92232195  0.46507429     0.39800
H1756       H  0.68059770  0.94460972  0.42337803     0.34700
C1757       C  0.39871601  0.17098471  0.40848887    -0.27100
C1758       C  0.37102315  0.15209823  0.43193561    -0.15100
C1759       C  0.36408510  0.11196110  0.42782955     0.35500
C1760       C  0.38485725  0.09131533  0.39988450    -0.26500
C1761       C  0.41214660  0.11036157  0.37605839    -0.15700
C1762       C  0.41912072  0.15047092  0.38026661     0.36600
N1763       N  0.44728406  0.17026843  0.35644884    -0.90000
H1764       H  0.40429667  0.20185568  0.41191931     0.17700
H1765       H  0.37941182  0.06042761  0.39649393     0.17700
N1766       N  0.33671875  0.09204111  0.45247560    -0.89000
H1767       H  0.46776301  0.18339044  0.37486411     0.35100
H1768       H  0.43315654  0.19232769  0.34128898     0.40200
H1769       H  0.35099265  0.06927420  0.46635813     0.39800
H1770       H  0.31519736  0.07970314  0.43474188     0.34700
C1771       C  0.46640169  0.25121711  0.19175224    -0.27100
C1772       C  0.49419242  0.27779920  0.20668634    -0.15100
C1773       C  0.52428959  0.26269886  0.23026012     0.35500
C1774       C  0.52478762  0.22295280  0.23991156    -0.26500
C1775       C  0.49548075  0.19741033  0.22698781    -0.15700
C1776       C  0.46639987  0.21181642  0.20216253     0.36600
N1777       N  0.43707613  0.18635973  0.18649303    -0.90000
H1778       H  0.44411192  0.25997978  0.17179426     0.17700
H1779       H  0.54787637  0.21222461  0.25830518     0.17700
N1780       N  0.55424127  0.28785269  0.24514144    -0.89000
H1781       H  0.43865248  0.18812478  0.15619368     0.35100
H1782       H  0.40994084  0.19664849  0.19498043     0.40200
H1783       H  0.58100834  0.27759073  0.23553820     0.39800
H1784       H  0.55373527  0.28603963  0.27552669     0.34700
C1785       C  0.46752489  0.80919173  0.23690285    -0.27100
C1786       C  0.49933379  0.83347230  0.22779855    -0.15100
C1787       C  0.53008450  0.81784782  0.20592918     0.35500
C1788       C  0.52768118  0.77955050  0.19225214    -0.26500
C1789       C  0.49536084  0.75510477  0.20015079    -0.15700
C1790       C  0.46536898  0.77052102  0.22417377     0.36600
N1791       N  0.43253794  0.74783509  0.23717152    -0.90000
H1792       H  0.44395615  0.82030821  0.25436009     0.17700
H1793       H  0.55268014  0.76905201  0.17687920     0.17700
N1794       N  0.56401703  0.84077397  0.19699492    -0.89000
H1795       H  0.44174196  0.72284402  0.25149789     0.35100
H1796       H  0.41503677  0.74048054  0.21348732     0.40200
H1797       H  0.56704952  0.84182264  0.16676261     0.39800
H1798       H  0.58820440  0.82662652  0.20835001     0.34700
C1799       C  0.63211110  0.11822374  0.12656356    -0.27100
C1800       C  0.59924387  0.09564935  0.11600123    -0.15100
C1801       C  0.59268104  0.08895361  0.07546717     0.35500
C1802       C  0.61788033  0.10531152  0.04764991    -0.26500
C1803       C  0.64930032  0.12905773  0.05856104    -0.15700
C1804       C  0.65690721  0.13484328  0.09836265     0.36600
N1805       N  0.68988954  0.15775336  0.11022515    -0.90000
H1806       H  0.63861961  0.12349606  0.15695450     0.17700
H1807       H  0.61151890  0.10107003  0.01703598     0.17700
N1808       N  0.56018234  0.06687634  0.06104252    -0.89000
H1809       H  0.70742732  0.14047091  0.12783552     0.35100
H1810       H  0.67994983  0.18081514  0.12705914     0.40200
H1811       H  0.53448189  0.07967997  0.07040318     0.39800
H1812       H  0.56181425  0.03835786  0.07132749     0.34700
C1813       C  0.57579525  0.89550882  0.10338951    -0.27100
C1814       C  0.58903114  0.93064696  0.11900765    -0.15100
C1815       C  0.62460689  0.94718013  0.10702332     0.35500
C1816       C  0.64713037  0.92749032  0.07970006    -0.26500
C1817       C  0.63469837  0.89152752  0.06471692    -0.15700
C1818       C  0.59857115  0.87542968  0.07668354     0.36600
N1819       N  0.58439880  0.83933860  0.06118172    -0.90000
H1820       H  0.54793086  0.88340531  0.11234459     0.17700
H1821       H  0.67474249  0.93995299  0.07050429     0.17700
N1822       N  0.63778229  0.98357992  0.12310969    -0.89000
H1823       H  0.55748842  0.84423155  0.04807619     0.35100
H1824       H  0.57978887  0.82015629  0.08443832     0.40200
H1825       H  0.61810008  0.00484742  0.11465065     0.39800
H1826       H  0.66467652  0.99175019  0.11126456     0.34700
C1827       C  0.36017197  0.91352727  0.13436723    -0.27100
C1828       C  0.39196190  0.93606499  0.12099364    -0.15100
C1829       C  0.39663863  0.94147829  0.08036702     0.35500
C1830       C  0.37138848  0.92222573  0.05444592    -0.26500
C1831       C  0.34150066  0.89771307  0.06817545    -0.15700
C1832       C  0.33517248  0.89442622  0.10860077     0.36600
N1833       N  0.30337434  0.87218280  0.12440778    -0.90000
H1834       H  0.35478506  0.90999128  0.16525383     0.17700
H1835       H  0.37598613  0.92548990  0.02341704     0.17700
N1836       N  0.42702353  0.96600219  0.06509998    -0.89000
H1837       H  0.30661946  0.84309690  0.11686825     0.35100
H1838       H  0.27759623  0.88217758  0.11216172     0.40200
H1839       H  0.41425159  0.98777213  0.04834926     0.39800
H1840       H  0.44432901  0.94935350  0.04674937     0.34700
C1841       C  0.33623758  0.09403902  0.08250770    -0.27100
C1842       C  0.34609090  0.12964038  0.06480321    -0.15100
C1843       C  0.38258001  0.14718259  0.07305243     0.35500
C1844       C  0.40730105  0.12998732  0.10048282    -0.26500
C1845       C  0.39627855  0.09580254  0.11982558    -0.15700
C1846       C  0.36099654  0.07696553  0.11014125     0.36600
N1847       N  0.35105893  0.04015395  0.12768495    -0.90000
H1848       H  0.30898563  0.07991427  0.07538355     0.17700
H1849       H  0.43542404  0.14306835  0.10658518     0.17700
N1850       N  0.39465486  0.18206072  0.05303174    -0.89000
H1851       H  0.32460279  0.02959948  0.11675153     0.35100
H1852       H  0.34700693  0.04467667  0.15747845     0.40200
H1853       H  0.39729642  0.17550529  0.02347834     0.39800
H1854       H  0.42215836  0.19123989  0.06247977     0.34700
C1855       C  0.76220775  0.19953827  0.47534199    -0.27100
C1856       C  0.73785561  0.20772082  0.50702712    -0.15100
C1857       C  0.75460742  0.22486586  0.54071312     0.35500
C1858       C  0.79359732  0.23672114  0.54057474    -0.26500
C1859       C  0.81676574  0.23138678  0.50763104    -0.15700
C1860       C  0.80127336  0.21105194  0.47540994     0.36600
N1861       N  0.82503465  0.20195330  0.44247836    -0.90000
H1862       H  0.75143320  0.18556698  0.44943703     0.17700
H1863       H  0.80536734  0.25120172  0.56604217     0.17700
N1864       N  0.73150349  0.23210713  0.57456914    -0.89000
H1865       H  0.81275434  0.21455962  0.41772788     0.35100
H1866       H  0.82462933  0.17181932  0.43880826     0.40200
H1867       H  0.74420635  0.21793169  0.59821275     0.39800
H1868       H  0.73229957  0.26194988  0.58011077     0.34700
C1869       C  0.59436035  0.17993427  0.40643958    -0.27100
C1870       C  0.61439580  0.16277016  0.43734558    -0.15100
C1871       C  0.61728410  0.12195061  0.43884905     0.35500
C1872       C  0.59968625  0.09897140  0.40983998    -0.26500
C1873       C  0.58063636  0.11608507  0.37813218    -0.15700
C1874       C  0.57791116  0.15703507  0.37646307     0.36600
N1875       N  0.55863114  0.17519719  0.34422969    -0.90000
H1876       H  0.59269401  0.21130413  0.40503552     0.17700
H1877       H  0.60198090  0.06764958  0.41146192     0.17700
N1878       N  0.63877523  0.10382455  0.46950351    -0.89000
H1879       H  0.55875043  0.20537494  0.34751678     0.35100
H1880       H  0.52955396  0.16606837  0.34465571     0.40200
H1881       H  0.66120241  0.08806592  0.45686061     0.39800
H1882       H  0.62036076  0.08410325  0.48387963     0.34700
C1883       C  0.58952687  0.28973965  0.53938701    -0.27100
C1884       C  0.61818307  0.28419652  0.51085843    -0.15100
C1885       C  0.63210822  0.31655029  0.48946185     0.35500
C1886       C  0.61796313  0.35339021  0.49713149    -0.26500
C1887       C  0.58878950  0.35923258  0.52477608    -0.15700
C1888       C  0.57427456  0.32692822  0.54643426     0.36600
N1889       N  0.54340497  0.33031004  0.57435393    -0.90000
H1890       H  0.57912766  0.26515174  0.55639695     0.17700
H1891       H  0.62838153  0.37758632  0.47948665     0.17700
N1892       N  0.66013745  0.31202086  0.45900005    -0.89000
H1893       H  0.55446781  0.32232167  0.60151985     0.35100
H1894       H  0.53443436  0.35899012  0.57695985     0.40200
H1895       H  0.68439118  0.32945271  0.46556886     0.39800
H1896       H  0.64808644  0.32230201  0.43307215     0.34700
C1897       C  0.28123172  0.97846577  0.74202024    -0.27100
C1898       C  0.30634631  0.00962070  0.73299820    -0.15100
C1899       C  0.29168000  0.04190482  0.71274846     0.35500
C1900       C  0.25250200  0.04296416  0.70284175    -0.26500
C1901       C  0.22699445  0.01160151  0.71086465    -0.15700
C1902       C  0.24185696  0.97924076  0.73136524     0.36600
N1903       N  0.21708063  0.94692377  0.74133026    -0.90000
H1904       H  0.29214632  0.95332435  0.75734239     0.17700
H1905       H  0.24316355  0.06917392  0.68894109     0.17700
N1906       N  0.31672971  0.07337200  0.70065546    -0.89000
H1907       H  0.21778319  0.94332820  0.77154867     0.35100
H1908       H  0.22851813  0.92200806  0.72864197     0.40200
H1909       H  0.30634766  0.09906588  0.71269298     0.39800
H1910       H  0.31528405  0.07575173  0.67033571     0.34700
C1911       C  0.72075616  0.97802875  0.68518303    -0.27100
C1912       C  0.74487357  0.01074827  0.69157729    -0.15100
C1913       C  0.72842161  0.04341181  0.71008255     0.35500
C1914       C  0.68972900  0.04215917  0.72286062    -0.26500
C1915       C  0.66645772  0.00875032  0.71811380    -0.15700
C1916       C  0.68214156  0.97676612  0.69814552     0.36600
N1917       N  0.65909995  0.94265755  0.69073923    -0.90000
H1918       H  0.73172945  0.95209517  0.67188886     0.17700
H1919       H  0.67820523  0.06737844  0.73741682     0.17700
N1920       N  0.75142304  0.07763281  0.71737237    -0.89000
H1921       H  0.65820037  0.93829473  0.66064360     0.35100
H1922       H  0.67298184  0.91896231  0.70343160     0.40200
H1923       H  0.73791812  0.10109624  0.70385431     0.39800
H1924       H  0.75171562  0.08264845  0.74737186     0.34700
C1925       C  0.41473910  0.10734384  0.58044450    -0.27100
C1926       C  0.40715088  0.11363797  0.62005817    -0.15100
C1927       C  0.38436997  0.14610618  0.63026647     0.35500
C1928       C  0.36764923  0.16928805  0.60098016    -0.26500
C1929       C  0.37396715  0.16172009  0.56137230    -0.15700
C1930       C  0.39884568  0.13097280  0.55136431     0.36600
N1931       N  0.40759906  0.12265045  0.51160156    -0.90000
H1932       H  0.43292217  0.08352808  0.57157204     0.17700
H1933       H  0.34968335  0.19346927  0.60931090     0.17700
N1934       N  0.37812333  0.15597317  0.67023352    -0.89000
H1935       H  0.40027706  0.09359144  0.50638457     0.35100
H1936       H  0.43762538  0.12579062  0.50779764     0.40200
H1937       H  0.34818545  0.15601807  0.67536527     0.39800
H1938       H  0.38897341  0.18412012  0.67477166     0.34700
C1939       C  0.55923048  0.11139297  0.58055158    -0.27100
C1940       C  0.57372483  0.10750597  0.61857406    -0.15100
C1941       C  0.60744082  0.12896677  0.62922299     0.35500
C1942       C  0.62556978  0.15356741  0.60218813    -0.26500
C1943       C  0.61151527  0.15719543  0.56405373    -0.15700
C1944       C  0.57757009  0.13618733  0.55337621     0.36600
N1945       N  0.56162062  0.13940572  0.51505805    -0.90000
H1946       H  0.53321551  0.09553198  0.57191181     0.17700
H1947       H  0.65114770  0.16988268  0.61127383     0.17700
N1948       N  0.62401391  0.12553019  0.66735162    -0.89000
H1949       H  0.53337801  0.14987968  0.51760331     0.35100
H1950       H  0.55964061  0.11161021  0.50303803     0.40200
H1951       H  0.62482948  0.15309276  0.68004339     0.39800
H1952       H  0.65256847  0.11597874  0.66448982     0.34700
C1953       C  0.61990552  0.86371345  0.59891185    -0.27100
C1954       C  0.61835559  0.87530608  0.56004756    -0.15100
C1955       C  0.59563431  0.90724389  0.54946725     0.35500
C1956       C  0.57505115  0.92742043  0.57822445    -0.26500
C1957       C  0.57559973  0.91535886  0.61754835    -0.15700
C1958       C  0.59805537  0.88221810  0.62739876     0.36600
N1959       N  0.59777556  0.86478889  0.66532322    -0.90000
H1960       H  0.63662868  0.83847051  0.60692562     0.17700
H1961       H  0.55829454  0.95237181  0.56951626     0.17700
N1962       N  0.59363680  0.91936882  0.50959675    -0.89000
H1963       H  0.61012487  0.88379495  0.68554900     0.35100
H1964       H  0.56911357  0.85790092  0.67308151     0.40200
H1965       H  0.60329056  0.94824546  0.50783012     0.39800
H1966       H  0.56454166  0.91821377  0.50087185     0.34700
C1967       C  0.38972164  0.87106262  0.62645887    -0.27100
C1968       C  0.40927345  0.90556689  0.61535617    -0.15100
C1969       C  0.41425158  0.91276717  0.57479313     0.35500
C1970       C  0.39763930  0.88727615  0.54720607    -0.26500
C1971       C  0.37574595  0.85458395  0.55863135    -0.15700
C1972       C  0.37287596  0.84588190  0.59869918     0.36600
N1973       N  0.35280248  0.81143243  0.61143898    -0.90000
H1974       H  0.38672478  0.86371106  0.65700079     0.17700
H1975       H  0.40046069  0.89419592  0.51654891     0.17700
N1976       N  0.43547873  0.94618814  0.56104300    -0.89000
H1977       H  0.33050771  0.81966929  0.63022194     0.35100
H1978       H  0.37232753  0.79470129  0.62739405     0.40200
H1979       H  0.41696994  0.96254418  0.54352657     0.39800
H1980       H  0.45834254  0.93662773  0.54364439     0.34700
C1981       C  0.45429690  0.20995500  0.77106694    -0.27100
C1982       C  0.48940068  0.18976353  0.76997196    -0.15100
C1983       C  0.52386908  0.20965490  0.78117741     0.35500
C1984       C  0.52248344  0.24865940  0.79312556    -0.26500
C1985       C  0.48730286  0.26915920  0.79391117    -0.15700
C1986       C  0.45304590  0.24913719  0.78187475     0.36600
N1987       N  0.41675186  0.26882029  0.77929458    -0.90000
H1988       H  0.42737749  0.19561421  0.76258681     0.17700
H1989       H  0.54973226  0.26288088  0.80005457     0.17700
N1990       N  0.56061635  0.19062627  0.78042885    -0.89000
H1991       H  0.39664231  0.25420834  0.79708513     0.35100
H1992       H  0.40690534  0.26705091  0.75055410     0.40200
H1993       H  0.57228844  0.19124384  0.80852280     0.39800
H1994       H  0.57928028  0.20636153  0.76203111     0.34700
C1995       C  0.45568744  0.76702846  0.79226646    -0.27100
C1996       C  0.48997951  0.74585633  0.78637522    -0.15100
C1997       C  0.52186428  0.76575698  0.76802539     0.35500
C1998       C  0.51856405  0.80481343  0.75718909    -0.26500
C1999       C  0.48474873  0.82584852  0.76450248    -0.15700
C2000       C  0.45286604  0.80627113  0.78189515     0.36600
N2001       N  0.41743563  0.82608347  0.78988702    -0.90000
H2002       H  0.42993077  0.75381493  0.80443264     0.17700
H2003       H  0.54334437  0.81907965  0.74353622     0.17700
N2004       N  0.55844293  0.74790035  0.76013592    -0.89000
H2005       H  0.41210394  0.82442333  0.81981778     0.35100
H2006       H  0.39479641  0.81148561  0.77550968     0.40200
H2007       H  0.55442884  0.72279429  0.74367567     0.39800
H2008       H  0.57272928  0.74155581  0.78605727     0.34700
C2009       C  0.34018307  0.14310439  0.89694930    -0.27100
C2010       C  0.34793438  0.13565705  0.93622201    -0.15100
C2011       C  0.37913418  0.11140950  0.94583693     0.35500
C2012       C  0.40153262  0.09460598  0.91626632    -0.26500
C2013       C  0.39338874  0.10088598  0.87656665    -0.15700
C2014       C  0.36223079  0.12634328  0.86719871     0.36600
N2015       N  0.35177120  0.13599783  0.82802443    -0.90000
H2016       H  0.31618452  0.16165782  0.88921034     0.17700
H2017       H  0.42523495  0.07604160  0.92473479     0.17700
N2018       N  0.38863453  0.10404889  0.98571455    -0.89000
H2019       H  0.34309543  0.11075945  0.81339605     0.35100
H2020       H  0.37569437  0.14899217  0.81415829     0.40200
H2021       H  0.41740695  0.11302950  0.99036971     0.39800
H2022       H  0.38688503  0.07407809  0.99050715     0.34700
C2023       C  0.34810409  0.93095846  0.87955452    -0.27100
C2024       C  0.38878594  0.92819945  0.88126190    -0.15100
C2025       C  0.40600353  0.91010492  0.91382899     0.35500
C2026       C  0.38213214  0.89416615  0.94330010    -0.26500
C2027       C  0.34144046  0.89622751  0.94114118    -0.15700
C2028       C  0.32440499  0.91514208  0.90909809     0.36600
N2029       N  0.28307933  0.91729476  0.90519598    -0.90000
H2030       H  0.33466687  0.94532437  0.85499821     0.17700
H2031       H  0.39522988  0.87905322  0.96759300     0.17700
N2032       N  0.44758292  0.90712311  0.91632068    -0.89000
H2033       H  0.27215305  0.93142905  0.92966667     0.35100
H2034       H  0.27161941  0.88900564  0.90485103     0.40200
H2035       H  0.45672054  0.88965650  0.89332145     0.39800
H2036       H  0.45558599  0.89296928  0.94200461     0.34700
C2037       C  0.57514599  0.92016109  0.91297181    -0.27100
C2038       C  0.59089240  0.92941880  0.87630545    -0.15100
C2039       C  0.63117680  0.92293191  0.87015329     0.35500
C2040       C  0.65334322  0.90468151  0.89910817    -0.26500
C2041       C  0.63696231  0.89407851  0.93496065    -0.15700
C2042       C  0.59768579  0.90320685  0.94222634     0.36600
N2043       N  0.57965095  0.89517200  0.97889000    -0.90000
H2044       H  0.54482221  0.92576419  0.91896180     0.17700
H2045       H  0.68382906  0.89927971  0.89378343     0.17700
N2046       N  0.65097781  0.93623327  0.83584037    -0.89000
H2047       H  0.59402687  0.91161456  0.00005239     0.35100
H2048       H  0.58287607  0.86567279  0.98504198     0.40200
H2049       H  0.64612750  0.96595420  0.83248011     0.39800
H2050       H  0.63994854  0.92141015  0.81169619     0.34700
C2051       C  0.57151742  0.12426798  0.89663083    -0.27100
C2052       C  0.58790271  0.09477517  0.87427796    -0.15100
C2053       C  0.62678872  0.08376229  0.88116904     0.35500
C2054       C  0.64886589  0.10403643  0.90898657    -0.26500
C2055       C  0.63280882  0.13432478  0.93059917    -0.15700
C2056       C  0.59341320  0.14385444  0.92513936     0.36600
N2057       N  0.57564264  0.17285589  0.94901572    -0.90000
H2058       H  0.54144365  0.13191471  0.89185920     0.17700
H2059       H  0.67892144  0.09620990  0.91354358     0.17700
N2060       N  0.64461257  0.05200697  0.86111736    -0.89000
H2061       H  0.54654306  0.17641789  0.94122292     0.35100
H2062       H  0.57569519  0.16260600  0.97770027     0.40200
H2063       H  0.62558576  0.03868455  0.84145996     0.39800
H2064       H  0.65126858  0.03090597  0.88193579     0.34700
loop_ 
_geom_bond_atom_site_label_1 
_geom_bond_atom_site_label_2 
_geom_bond_distance 
_geom_bond_site_symmetry_2 
_ccdc_geom_bond_type 
O1          Zr37   2.442       .  S
O1           C12   1.292       .  A
O2          Zr36   2.447       .  S
O2           C13   1.294       .  A
O3           Zr9   2.440       .  S
O3           C14   1.294       .  A
O4           Zr9   2.441       .  S
O4           C15   1.292       .  A
O5          Zr39   2.436       .  S
O5           C15   1.293       .  A
O6          Zr38   2.440       .  S
O6           C14   1.293   1_565  A
O7           Zr9   2.417       .  S
O7           C13   1.288       .  A
O8           Zr9   2.434       .  S
O8           C12   1.291       .  A
Zr9          O10   2.334       .  S
Zr9          O11   2.334       .  S
Zr9          O19   2.334       .  S
Zr9          O17   2.339       .  S
O10         Zr36   2.343       .  S
O10         Zr39   2.331       .  S
O11         Zr37   2.343       .  S
O11         Zr38   2.335   1_545  S
C12        C2052   1.469       .  S
C13        C1940   1.486       .  S
C14        C1915   1.487       .  S
C15        C1982   1.493       .  S
H16          O17   0.964       .  S
O17         Zr36   2.325       .  S
O17         Zr38   2.345   1_545  S
H18          O19   0.964       .  S
O19         Zr37   2.318       .  S
O19         Zr39   2.335       .  S
O20         Zr36   2.421   1_565  S
O20          C43   1.289       .  A
O21         Zr37   2.425   1_565  S
O21          C44   1.291       .  A
O22         Zr38   2.436       .  S
O22          C45   1.290       .  A
O23         Zr39   2.435       .  S
O23          C46   1.290       .  A
O24         Zr39   2.428       .  S
O24          C47   1.288       .  A
O25         Zr38   2.450       .  S
O25          C48   1.294       .  A
O26         Zr40   2.438       .  S
O26          C49   1.293       .  A
O27         Zr40   2.431       .  S
O27          C50   1.291   1_565  A
O28         Zr38   2.452       .  S
O28          C49   1.296       .  A
O29         Zr39   2.421       .  S
O29          C50   1.290       .  A
O30         Zr36   2.454   1_565  S
O30          C45   1.296       .  A
O31         Zr37   2.457   1_565  S
O31          C48   1.297       .  A
O32         Zr37   2.481       .  S
O32          C47   1.301       .  A
O33         Zr36   2.452       .  S
O33          C46   1.296       .  A
O34         Zr40   2.494       .  S
O34          C43   1.304       .  A
O35         Zr40   2.482       .  S
O35          C44   1.301       .  A
Zr36         O42   2.353   1_545  S
Zr36         O54   2.346       .  S
Zr37         O41   2.344       .  S
Zr37         O52   2.350   1_545  S
Zr38         O42   2.334       .  S
Zr38         O52   2.348       .  S
Zr39         O41   2.332       .  S
Zr39         O54   2.354       .  S
Zr40         O41   2.346   1_565  S
Zr40         O42   2.336       .  S
Zr40         O54   2.362   1_565  S
Zr40         O52   2.355       .  S
C43        C1968   1.509       .  S
C44        C2024   1.485       .  S
C45        C1957   1.499       .  S
C46        C1926   1.500       .  S
C47        C2013   1.509       .  S
C48        C2038   1.497       .  S
C49        C1999   1.493       .  S
C50        C1898   1.475       .  S
H51          O52   0.966       .  S
H53          O54   0.966       .  S
C55          C56   1.530       .  S
C55          C61   1.519       .  S
C55          C59   1.543       .  S
C55        C1856   1.523       .  S
C56          H63   1.086       .  S
C56          C57   1.371       .  D
C57          C58   1.546       .  S
C57        C1943   1.490       .  S
C58          C62   1.549       .  S
C58          C60   1.547       .  S
C58          H64   1.108       .  S
C59          H65   1.082       .  S
C59          C60   1.366       .  D
C60        C1870   1.487       .  S
C61          H66   1.087       .  S
C61          C62   1.354       .  D
C62        C1884   1.487       .  S
O67        Zr103   2.457       .  S
O67          C78   1.296       .  A
O68        Zr102   2.418       .  S
O68          C79   1.289       .  A
O69         Zr75   2.432       .  S
O69          C80   1.290       .  A
O70         Zr75   2.426   1_565  S
O70          C81   1.289       .  A
O71        Zr105   2.445       .  S
O71          C81   1.293       .  A
O72        Zr104   2.421       .  S
O72          C80   1.288       .  A
O73         Zr75   2.457   1_565  S
O73          C79   1.295       .  A
O74         Zr75   2.450       .  S
O74          C78   1.295       .  A
Zr75         O76   2.342   1_545  S
Zr75         O77   2.346       .  S
Zr75         O85   2.338       .  S
Zr75         O83   2.320       .  S
O76        Zr102   2.335       .  S
O76        Zr105   2.328       .  S
O77        Zr103   2.339       .  S
O77        Zr104   2.333       .  S
C78        C1873   1.488       .  S
C79        C1733   1.475       .  S
C80        C1761   1.459       .  S
C81        C1747   1.465       .  S
H82          O83   0.964       .  S
O83        Zr102   2.346   1_545  S
O83        Zr104   2.347       .  S
H84          O85   0.966       .  S
O85        Zr103   2.360       .  S
O85        Zr105   2.344   1_545  S
O86        Zr102   2.427       .  S
O86         C109   1.292       .  A
O87        Zr103   2.464       .  S
O87         C110   1.298       .  A
O88        Zr104   2.432       .  S
O88         C111   1.292       .  A
O89        Zr105   2.441       .  S
O89         C112   1.293       .  A
O90        Zr105   2.424       .  S
O90         C113   1.290   1_565  A
O91        Zr104   2.435       .  S
O91         C114   1.292       .  A
O92        Zr106   2.433       .  S
O92         C115   1.290       .  A
O93        Zr106   2.418   1_565  S
O93         C116   1.287       .  A
O94        Zr104   2.442       .  S
O94         C115   1.292       .  A
O95        Zr105   2.427       .  S
O95         C116   1.289       .  A
O96        Zr102   2.453       .  S
O96         C111   1.296   1_565  A
O97        Zr103   2.451       .  S
O97         C114   1.295       .  A
O98        Zr103   2.432       .  S
O98         C113   1.291       .  A
O99        Zr102   2.464       .  S
O99         C112   1.297       .  A
O100       Zr106   2.433   1_565  S
O100        C109   1.291       .  A
O101       Zr106   2.437       .  S
O101        C110   1.290       .  A
Zr102       O108   2.339   1_565  S
Zr102       O120   2.337       .  S
Zr103       O107   2.340       .  S
Zr103       O118   2.349       .  S
Zr104       O108   2.329       .  S
Zr104       O118   2.340       .  S
Zr105       O107   2.335   1_565  S
Zr105       O120   2.342       .  S
Zr106       O107   2.339       .  S
Zr106       O108   2.333       .  S
Zr106       O120   2.334   1_545  S
Zr106       O118   2.328       .  S
C109       C1828   1.489       .  S
C110       C1800   1.506       .  S
C111       C1702   1.486       .  S
C112       C1786   1.495       .  S
C113       C1716   1.473       .  S
C114       C1775   1.485       .  S
C115       C1845   1.470       .  S
C116       C1814   1.451       .  S
H117        O118   0.965       .  S
H119        O120   0.965       .  S
C121        C122   1.543   1_554  S
C121        C127   1.519       .  S
C121        C125   1.538       .  S
C121       C1674   1.537       .  S
C122        H129   1.083       .  S
C122        C123   1.367       .  D
C123        C124   1.550   1_556  S
C123       C2027   1.488       .  S
C124        C128   1.551       .  S
C124        C126   1.541       .  S
C124        H130   1.111       .  S
C125        H131   1.084       .  S
C125        C126   1.370       .  D
C126       C1831   1.479       .  S
C127        H132   1.088       .  S
C127        C128   1.355       .  D
C128       C1691   1.492       .  S
C133        C134   1.552   1_556  S
C133        C139   1.537   1_556  S
C133        C137   1.549       .  S
C133       C1649   1.554       .  S
C134        H141   1.078       .  S
C134        C135   1.363       .  D
C135        C136   1.531       .  S
C135       C1817   1.479       .  S
C136        C140   1.534       .  S
C136        C138   1.533   1_554  S
C136        H142   1.111       .  S
C137        H143   1.086       .  S
C137        C138   1.373       .  D
C138       C2041   1.491       .  S
C139        H144   1.086       .  S
C139        C140   1.367       .  D
C140       C1660   1.482       .  S
C145        C146   1.550       .  S
C145        C151   1.532       .  S
C145        C149   1.546       .  S
C145       C1621   1.540       .  S
C146        H153   1.082       .  S
C146        C147   1.363       .  D
C147        C148   1.535       .  S
C147       C1744   1.483       .  S
C148        C152   1.534       .  S
C148        C150   1.532       .  S
C148        H154   1.111       .  S
C149        H155   1.082       .  S
C149        C150   1.370       .  D
C150       C1954   1.476       .  S
C151        H156   1.087       .  S
C151        C152   1.360       .  D
C152       C1632   1.480       .  S
C157        C158   1.552       .  S
C157        C163   1.534       .  S
C157        C161   1.549   1_554  S
C157       C1593   1.561       .  S
C158        H165   1.079       .  S
C158        C159   1.368       .  D
C159        C160   1.536   1_554  S
C159       C1842   1.489       .  S
C160        C164   1.535       .  S
C160        C162   1.534       .  S
C160        H166   1.111       .  S
C161        H167   1.085       .  S
C161        C162   1.372       .  D
C162       C2010   1.491       .  S
C163        H168   1.086   1_554  S
C163        C164   1.365   1_554  D
C164       C1604   1.479       .  S
C169        C170   1.535       .  S
C169        C175   1.526       .  S
C169        C173   1.542   1_556  S
C169       C1565   1.522       .  S
C170        H177   1.086       .  S
C170        C171   1.364       .  D
C171        C172   1.538       .  S
C171       C2055   1.482       .  S
C172        C176   1.549       .  S
C172        C174   1.545   1_556  S
C172        H178   1.109       .  S
C173        H179   1.081       .  S
C173        C174   1.366       .  D
C174       C1803   1.486       .  S
C175        H180   1.087       .  S
C175        C176   1.358       .  D
C176       C1579   1.489       .  S
C181        C182   1.553       .  S
C181        C187   1.537       .  S
C181        C185   1.549       .  S
C181       C1534   1.542       .  S
C182        H189   1.081       .  S
C182        C183   1.365       .  D
C183        C184   1.526       .  S
C183       C1758   1.466       .  S
C184        C188   1.529       .  S
C184        C186   1.538       .  S
C184        H190   1.110       .  S
C185        H191   1.086       .  S
C185        C186   1.374       .  D
C186       C1929   1.500       .  S
C187        H192   1.087       .  S
C187        C188   1.358       .  D
C188       C1551   1.476       .  S
C193        C194   1.550       .  S
C193        C199   1.525       .  S
C193        C197   1.536       .  S
C193       C1506   1.520       .  S
C194        H201   1.081       .  S
C194        C195   1.369       .  D
C195        C196   1.549       .  S
C195       C1971   1.498       .  S
C196        C200   1.548       .  S
C196        C198   1.536       .  S
C196        H202   1.111       .  S
C197        H203   1.086       .  S
C197        C198   1.361       .  D
C198       C1730   1.470       .  S
C199        H204   1.087       .  S
C199        C200   1.353       .  D
C200       C1520   1.482       .  S
O205       Zr241   2.433       .  S
O205        C216   1.291       .  A
O206       Zr240   2.431       .  S
O206        C217   1.291   1_455  A
O207       Zr213   2.461       .  S
O207        C218   1.296       .  A
O208       Zr213   2.460       .  S
O208        C219   1.298       .  A
O209       Zr243   2.432       .  S
O209        C219   1.291       .  A
O210       Zr242   2.429       .  S
O210        C218   1.290       .  A
O211       Zr213   2.438       .  S
O211        C217   1.292       .  A
O212       Zr213   2.437       .  S
O212        C216   1.293       .  A
Zr213       O214   2.344       .  S
Zr213       O215   2.333       .  S
Zr213       O223   2.350       .  S
Zr213       O221   2.344       .  S
O214       Zr240   2.330   1_655  S
O214       Zr243   2.351       .  S
O215       Zr241   2.326       .  S
O215       Zr242   2.344       .  S
C216       C1618   1.490       .  S
C217       C1380   1.484       .  S
C218       C1422   1.469       .  S
C219       C1478   1.497       .  S
H220        O221   0.965       .  S
O221       Zr240   2.334   1_655  S
O221       Zr242   2.327       .  S
H222        O223   0.966       .  S
O223       Zr241   2.349       .  S
O223       Zr243   2.354       .  S
O224       Zr240   2.413       .  S
O224        C247   1.287       .  A
O225       Zr241   2.441       .  S
O225        C248   1.293       .  A
O226       Zr242   2.476   1_455  S
O226        C249   1.299       .  A
O227       Zr243   2.460   1_455  S
O227        C250   1.297       .  A
O228       Zr243   2.429       .  S
O228        C251   1.290       .  A
O229       Zr242   2.462       .  S
O229        C252   1.298       .  A
O230       Zr244   2.434       .  S
O230        C253   1.292       .  A
O231       Zr244   2.442       .  S
O231        C254   1.292       .  A
O232       Zr242   2.446   1_455  S
O232        C253   1.294       .  A
O233       Zr243   2.474   1_455  S
O233        C254   1.299       .  A
O234       Zr240   2.416       .  S
O234        C249   1.287       .  A
O235       Zr241   2.456       .  S
O235        C252   1.295       .  A
O236       Zr241   2.441       .  S
O236        C251   1.293       .  A
O237       Zr240   2.419       .  S
O237        C250   1.288       .  A
O238       Zr244   2.422       .  S
O238        C247   1.291       .  A
O239       Zr244   2.426       .  S
O239        C248   1.290   1_455  A
Zr240       O246   2.332       .  S
Zr240       O258   2.345       .  S
Zr241       O245   2.342       .  S
Zr241       O256   2.344       .  S
Zr242       O246   2.336   1_655  S
Zr242       O256   2.334       .  S
Zr243       O245   2.348       .  S
Zr243       O258   2.315   1_655  S
Zr244       O245   2.329   1_455  S
Zr244       O246   2.338       .  S
Zr244       O258   2.345       .  S
Zr244       O256   2.351   1_455  S
C247       C1509   1.471       .  S
C248       C1369   1.479       .  S
C249       C1408   1.478       .  S
C250       C1492   1.494       .  S
C251       C1464   1.462       .  S
C252       C1436   1.511       .  S
C253       C1397   1.483       .  S
C254       C1453   1.508       .  S
H255        O256   0.965       .  S
H257        O258   0.965       .  S
O259       Zr295   2.416       .  S
O259        C270   1.288       .  A
O260       Zr294   2.443       .  S
O260        C271   1.292   1_455  A
O261       Zr267   2.448       .  S
O261        C272   1.294       .  A
O262       Zr267   2.444       .  S
O262        C273   1.294       .  A
O263       Zr297   2.445       .  S
O263        C273   1.294       .  A
O264       Zr296   2.462       .  S
O264        C272   1.297       .  A
O265       Zr267   2.420       .  S
O265        C271   1.289       .  A
O266       Zr267   2.417       .  S
O266        C270   1.289       .  A
Zr267       O268   2.344       .  S
Zr267       O269   2.340       .  S
Zr267       O277   2.345       .  S
Zr267       O275   2.340       .  S
O268       Zr294   2.346   1_655  S
O268       Zr297   2.345       .  S
O269       Zr295   2.332       .  S
O269       Zr296   2.324       .  S
C270       C1859   1.472       .  S
C271       C1240   1.480       .  S
C272       C1324   1.489       .  S
C273       C1268   1.493       .  S
H274        O275   0.966       .  S
O275       Zr294   2.345   1_655  S
O275       Zr296   2.361       .  S
H276        O277   0.965       .  S
O277       Zr295   2.335       .  S
O277       Zr297   2.352       .  S
O278       Zr294   2.456       .  S
O278        C301   1.295       .  A
O279       Zr295   2.424       .  S
O279        C302   1.289       .  A
O280       Zr296   2.417   1_455  S
O280        C303   1.288       .  A
O281       Zr297   2.445   1_455  S
O281        C304   1.296       .  A
O282       Zr297   2.454       .  S
O282        C305   1.295       .  A
O283       Zr296   2.452       .  S
O283        C306   1.293       .  A
O284       Zr298   2.426       .  S
O284        C307   1.291       .  A
O285       Zr298   2.420       .  S
O285        C308   1.289       .  A
O286       Zr296   2.454   1_455  S
O286        C307   1.295       .  A
O287       Zr297   2.452   1_455  S
O287        C308   1.296       .  A
O288       Zr294   2.437       .  S
O288        C303   1.292       .  A
O289       Zr295   2.442       .  S
O289        C306   1.294       .  A
O290       Zr295   2.429       .  S
O290        C305   1.291       .  A
O291       Zr294   2.447       .  S
O291        C304   1.294       .  A
O292       Zr298   2.432       .  S
O292        C301   1.290       .  A
O293       Zr298   2.436       .  S
O293        C302   1.293   1_455  A
Zr294       O300   2.336       .  S
Zr294       O312   2.329       .  S
Zr295       O299   2.328       .  S
Zr295       O310   2.333       .  S
Zr296       O300   2.337   1_655  S
Zr296       O310   2.348       .  S
Zr297       O299   2.326       .  S
Zr297       O312   2.349   1_655  S
Zr298       O299   2.328   1_455  S
Zr298       O300   2.329       .  S
Zr298       O312   2.328       .  S
Zr298       O310   2.336   1_455  S
C301       C1537   1.490       .  S
C302       C1229   1.484       .  S
C303       C1310   1.453       .  S
C304       C1282   1.499       .  S
C305       C1254   1.476       .  S
C306       C1338   1.503       .  S
C307       C1352   1.480       .  S
C308       C1299   1.492       .  S
H309        O310   0.965       .  S
H311        O312   0.965       .  S
C313        C314   1.537       .  S
C313        C319   1.533       .  S
C313        C317   1.553       .  S
C313       C1198   1.529       .  S
C314        H321   1.086       .  S
C314        C315   1.365       .  D
C315        C316   1.533       .  S
C315       C1271   1.475       .  S
C316        C320   1.531       .  S
C316        C318   1.525       .  S
C316        H322   1.111       .  S
C317        H323   1.079       .  S
C317        C318   1.363       .  D
C318       C1425   1.477       .  S
C319        H324   1.087       .  S
C319        C320   1.363       .  D
C320       C1212   1.470       .  S
C325        C326   1.545       .  S
C325        C331   1.528       .  S
C325        C329   1.543       .  S
C325       C1173   1.544       .  S
C326        H333   1.086       .  S
C326        C327   1.372       .  D
C327        C328   1.543       .  S
C327       C1411   1.493       .  S
C328        C332   1.547       .  S
C328        C330   1.550       .  S
C328        H334   1.108       .  S
C329        H335   1.082       .  S
C329        C330   1.367       .  D
C330       C1285   1.497       .  S
C331        H336   1.087       .  S
C331        C332   1.361       .  D
C332       C1184   1.494       .  S
C337        C338   1.555   1_545  S
C337        C343   1.528       .  S
C337        C341   1.534       .  S
C337       C1719   1.534       .  S
C338        H345   1.078       .  S
C338        C339   1.367       .  D
C339        C340   1.534   1_565  S
C339       C1467   1.486       .  S
C340        C344   1.536       .  S
C340        C342   1.544       .  S
C340        H346   1.109       .  S
C341        H347   1.086       .  S
C341        C342   1.364       .  D
C342       C1341   1.490       .  S
C343        H348   1.087       .  S
C343        C344   1.359       .  D
C344       C1159   1.474       .  S
C349        C350   1.538       .  S
C349        C355   1.522       .  S
C349        C353   1.544   1_545  S
C349       C1912   1.532       .  S
C350        H357   1.086       .  S
C350        C351   1.367       .  D
C351        C352   1.553       .  S
C351       C1327   1.493       .  S
C352        C356   1.549       .  S
C352        C354   1.544   1_545  S
C352        H358   1.111       .  S
C353        H359   1.082       .  S
C353        C354   1.370       .  D
C354       C1481   1.485       .  S
C355        H360   1.088       .  S
C355        C356   1.356       .  D
C356       C1145   1.490       .  S
C361        C362   1.539       .  S
C361        C367   1.526       .  S
C361        C365   1.549       .  S
C361       C1114   1.526       .  S
C362        H369   1.086       .  S
C362        C363   1.370       .  D
C363        C364   1.551       .  S
C363       C1439   1.505       .  S
C364        C368   1.544       .  S
C364        C366   1.535       .  S
C364        H370   1.110       .  S
C365        H371   1.081       .  S
C365        C366   1.365       .  D
C366       C1257   1.473       .  S
C367        H372   1.088       .  S
C367        C368   1.352       .  D
C368       C1128   1.481       .  S
C373        C374   1.546       .  S
C373        C379   1.532       .  S
C373        C377   1.536       .  S
C373       C1089   1.533       .  S
C374        H381   1.080       .  S
C374        C375   1.366       .  D
C375        C376   1.538       .  S
C375       C1296   1.488       .  S
C376        C380   1.541       .  S
C376        C378   1.546       .  S
C376        H382   1.110       .  S
C377        H383   1.086       .  S
C377        C378   1.365       .  D
C378       C1394   1.485       .  S
C379        H384   1.087       .  S
C379        C380   1.363       .  D
C380       C1100   1.481       .  S
C385        C386   1.548       .  S
C385        C391   1.526       .  S
C385        C389   1.538   1_545  S
C385       C1705   1.535       .  S
C386        H393   1.082       .  S
C386        C387   1.364       .  D
C387        C388   1.537       .  S
C387       C1355   1.476       .  S
C388        C392   1.553       .  S
C388        C390   1.555   1_545  S
C388        H394   1.109       .  S
C389        H395   1.086       .  S
C389        C390   1.373       .  D
C390       C1450   1.510       .  S
C391        H396   1.087       .  S
C391        C392   1.358       .  D
C392       C1075   1.494       .  S
C397        C398   1.540   1_545  S
C397        C403   1.529       .  S
C397        C401   1.548       .  S
C397       C1901   1.531       .  S
C398        H405   1.086       .  S
C398        C399   1.366       .  D
C399        C400   1.531   1_565  S
C399       C1495   1.478       .  S
C400        C404   1.531       .  S
C400        C402   1.532       .  S
C400        H406   1.108       .  S
C401        H407   1.078       .  S
C401        C402   1.364       .  D
C402       C1313   1.480       .  S
C403        H408   1.087       .  S
C403        C404   1.362       .  D
C404       C1058   1.470       .  S
O409       Zr445   2.456       .  S
O409        C420   1.295       .  A
O410       Zr444   2.408       .  S
O410        C421   1.286       .  A
O411       Zr417   2.434       .  S
O411        C422   1.292       .  A
O412       Zr417   2.435       .  S
O412        C423   1.294       .  A
O413       Zr447   2.412   1_554  S
O413        C423   1.287       .  A
O414       Zr446   2.438   1_554  S
O414        C422   1.292       .  A
O415       Zr417   2.446       .  S
O415        C421   1.294       .  A
O416       Zr417   2.450       .  S
O416        C420   1.294   1_554  A
Zr417       O418   2.334       .  S
Zr417       O419   2.333   1_554  S
Zr417       O427   2.331   1_554  S
Zr417       O425   2.330       .  S
O418       Zr444   2.332       .  S
O418       Zr447   2.337   1_554  S
O419       Zr445   2.334       .  S
O419       Zr446   2.346       .  S
C420       C1646   1.502       .  S
C421       C1117   1.475       .  S
C422        C960   1.467       .  S
C423       C1044   1.474       .  S
H424        O425   0.965       .  S
O425       Zr444   2.325       .  S
O425       Zr446   2.348   1_554  S
H426        O427   0.965       .  S
O427       Zr445   2.329       .  S
O427       Zr447   2.354       .  S
O428       Zr444   2.406       .  S
O428        C451   1.285   1_554  A
O429       Zr445   2.437       .  S
O429        C452   1.293       .  A
O430       Zr446   2.462   1_554  S
O430        C453   1.297       .  A
O431       Zr447   2.456   1_554  S
O431        C454   1.296       .  A
O432       Zr447   2.463       .  S
O432        C455   1.298       .  A
O433       Zr446   2.427       .  S
O433        C456   1.290       .  A
O434       Zr448   2.438       .  S
O434        C457   1.292       .  A
O435       Zr448   2.428       .  S
O435        C458   1.291       .  A
O436       Zr446   2.471       .  S
O436        C457   1.299       .  A
O437       Zr447   2.432       .  S
O437        C458   1.292       .  A
O438       Zr444   2.446       .  S
O438        C453   1.294       .  A
O439       Zr445   2.409       .  S
O439        C456   1.287       .  A
O440       Zr445   2.429       .  S
O440        C455   1.290       .  A
O441       Zr444   2.430       .  S
O441        C454   1.290       .  A
O442       Zr448   2.431       .  S
O442        C451   1.292       .  A
O443       Zr448   2.405       .  S
O443        C452   1.286       .  A
Zr444       O450   2.334   1_554  S
Zr444       O462   2.335   1_554  S
Zr445       O449   2.335       .  S
Zr445       O460   2.345       .  S
Zr446       O450   2.330       .  S
Zr446       O460   2.348       .  S
Zr447       O449   2.330       .  S
Zr447       O462   2.352       .  S
Zr448       O449   2.343       .  S
Zr448       O450   2.334       .  S
Zr448       O462   2.330       .  S
Zr448       O460   2.326       .  S
C451       C1562   1.478       .  S
C452       C1201   1.468       .  S
C453        C946   1.489       .  S
C454       C1002   1.497       .  S
C455       C1030   1.498       .  S
C456        C974   1.447       .  S
C457        C988   1.507       .  S
C458       C1016   1.481       .  S
H459        O460   0.965       .  S
H461        O462   0.965       .  S
O463       Zr499   2.454       .  S
O463        C474   1.295   1_556  A
O464       Zr498   2.426       .  S
O464        C475   1.290       .  A
O465       Zr471   2.427       .  S
O465        C476   1.290       .  A
O466       Zr471   2.429       .  S
O466        C477   1.288       .  A
O467       Zr501   2.482       .  S
O467        C477   1.301       .  A
O468       Zr500   2.437       .  S
O468        C476   1.292       .  A
O469       Zr471   2.432       .  S
O469        C475   1.291       .  A
O470       Zr471   2.429       .  S
O470        C474   1.292       .  A
Zr471       O472   2.327       .  S
Zr471       O473   2.335       .  S
Zr471       O481   2.346       .  S
Zr471       O479   2.344       .  S
O472       Zr498   2.340       .  S
O472       Zr501   2.338       .  S
O473       Zr499   2.338   1_554  S
O473       Zr500   2.338       .  S
C474       C1677   1.488       .  S
C475       C1086   1.468       .  S
C476        C865   1.473       .  S
C477        C918   1.514       .  S
H478        O479   0.965       .  S
O479       Zr498   2.346       .  S
O479       Zr500   2.318       .  S
H480        O481   0.965       .  S
O481       Zr499   2.345   1_554  S
O481       Zr501   2.321       .  S
O482       Zr498   2.437       .  S
O482        C505   1.292       .  A
O483       Zr499   2.452       .  S
O483        C506   1.296       .  A
O484       Zr500   2.435       .  S
O484        C507   1.291       .  A
O485       Zr501   2.410       .  S
O485        C508   1.287       .  A
O486       Zr501   2.437   1_556  S
O486        C509   1.292       .  A
O487       Zr500   2.440   1_556  S
O487        C510   1.292       .  A
O488       Zr502   2.431       .  S
O488        C511   1.293       .  A
O489       Zr502   2.439       .  S
O489        C512   1.292       .  A
O490       Zr500   2.404   1_556  S
O490        C511   1.284       .  A
O491       Zr501   2.445   1_556  S
O491        C512   1.293       .  A
O492       Zr498   2.458       .  S
O492        C507   1.295       .  A
O493       Zr499   2.428       .  S
O493        C510   1.289       .  A
O494       Zr499   2.437       .  S
O494        C509   1.292       .  A
O495       Zr498   2.434       .  S
O495        C508   1.293       .  A
O496       Zr502   2.481       .  S
O496        C505   1.301   1_556  A
O497       Zr502   2.460       .  S
O497        C506   1.297       .  A
Zr498       O504   2.327       .  S
Zr498       O516   2.347       .  S
Zr499       O503   2.335       .  S
Zr499       O514   2.343       .  S
Zr500       O504   2.350       .  S
Zr500       O514   2.328   1_554  S
Zr501       O503   2.343   1_554  S
Zr501       O516   2.347       .  S
Zr502       O503   2.345       .  S
Zr502       O504   2.336   1_556  S
Zr502       O516   2.343   1_556  S
Zr502       O514   2.350       .  S
C505       C1590   1.503       .  S
C506       C1170   1.500       .  S
C507        C851   1.481       .  S
C508        C932   1.481       .  S
C509        C907   1.493       .  S
C510        C879   1.468       .  S
C511        C834   1.478       .  S
C512        C890   1.468       .  S
H513        O514   0.965       .  S
H515        O516   0.965       .  S
C517        C518   1.537   1_655  S
C517        C523   1.529   1_655  S
C517        C521   1.545       .  S
C517       C1383   1.530       .  S
C518        H525   1.084       .  S
C518        C519   1.366       .  D
C519        C520   1.535       .  S
C519        C876   1.473       .  S
C520        C524   1.541       .  S
C520        C522   1.546   1_455  S
C520        H526   1.110       .  S
C521        H527   1.081       .  S
C521        C522   1.368       .  D
C522       C1033   1.493       .  S
C523        H528   1.087       .  S
C523        C524   1.353       .  D
C524        C820   1.481       .  S
C529        C530   1.533       .  S
C529        C535   1.533       .  S
C529        C533   1.544   1_655  S
C529       C1243   1.530       .  S
C530        H537   1.086       .  S
C530        C531   1.365       .  D
C531        C532   1.541       .  S
C531       C1019   1.472       .  S
C532        C536   1.530       .  S
C532        C534   1.529   1_655  S
C532        H538   1.110       .  S
C533        H539   1.078       .  S
C533        C534   1.363       .  D
C534        C837   1.477       .  S
C535        H540   1.087       .  S
C535        C536   1.362       .  D
C536        C806   1.474   1_655  S
C541        C542   1.552       .  S
C541        C547   1.537       .  S
C541        C545   1.536       .  S
C541       C1996   1.542       .  S
C542        H549   1.081       .  S
C542        C543   1.368       .  D
C543        C544   1.534       .  S
C543        C904   1.485       .  S
C544        C548   1.530       .  S
C544        C546   1.528       .  S
C544        H550   1.111       .  S
C545        H551   1.084       .  S
C545        C546   1.363       .  D
C546        C977   1.461       .  S
C547        H552   1.086       .  S
C547        C548   1.362       .  D
C548        C792   1.476       .  S
C553        C554   1.551       .  S
C553        C559   1.520       .  S
C553        C557   1.544       .  S
C553       C1789   1.541       .  S
C554        H561   1.083       .  S
C554        C555   1.368       .  D
C555        C556   1.535       .  S
C555        C963   1.475       .  S
C556        C560   1.547       .  S
C556        C558   1.554       .  S
C556        H562   1.109       .  S
C557        H563   1.084       .  S
C557        C558   1.376       .  D
C558        C921   1.514       .  S
C559        H564   1.088       .  S
C559        C560   1.349       .  D
C560        C778   1.480       .  S
C565        C566   1.535   1_655  S
C565        C571   1.524       .  S
C565        C569   1.549       .  S
C565       C1226   1.530       .  S
C566        H573   1.087       .  S
C566        C567   1.363       .  D
C567        C568   1.548   1_455  S
C567        C848   1.490       .  S
C568        C572   1.548       .  S
C568        C570   1.542       .  S
C568        H574   1.110       .  S
C569        H575   1.083       .  S
C569        C570   1.374       .  D
C570       C1005   1.485       .  S
C571        H576   1.088       .  S
C571        C572   1.356       .  D
C572        C767   1.485       .  S
C577        C578   1.544       .  S
C577        C583   1.532       .  S
C577        C581   1.532   1_655  S
C577       C1366   1.529       .  S
C578        H585   1.080       .  S
C578        C579   1.365       .  D
C579        C580   1.533       .  S
C579       C1047   1.480       .  S
C580        C584   1.537       .  S
C580        C582   1.546   1_655  S
C580        H586   1.109       .  S
C581        H587   1.086       .  S
C581        C582   1.362       .  D
C582        C862   1.479       .  S
C583        H588   1.087       .  S
C583        C584   1.359       .  D
C584        C750   1.483       .  S
C589        C590   1.546       .  S
C589        C595   1.523       .  S
C589        C593   1.541       .  S
C589       C1985   1.540       .  S
C590        H597   1.083       .  S
C590        C591   1.374       .  D
C591        C592   1.551       .  S
C591        C991   1.507       .  S
C592        C596   1.547       .  S
C592        C594   1.542       .  S
C592        H598   1.107       .  S
C593        H599   1.084       .  S
C593        C594   1.372       .  D
C594        C893   1.493       .  S
C595        H600   1.087       .  S
C595        C596   1.359       .  D
C596        C736   1.490       .  S
C601        C602   1.549       .  S
C601        C607   1.542       .  S
C601        C605   1.539       .  S
C601       C1772   1.543       .  S
C602        H609   1.078       .  S
C602        C603   1.366       .  D
C603        C604   1.533       .  S
C603        C935   1.481       .  S
C604        C608   1.532       .  S
C604        C606   1.539       .  S
C604        H610   1.110       .  S
C605        H611   1.086       .  S
C605        C606   1.366       .  D
C606        C949   1.484       .  S
C607        H612   1.086       .  S
C607        C608   1.367       .  D
C608        C725   1.484       .  S
O613       Zr649   2.482       .  S
O613        C624   1.299       .  A
O614       Zr648   2.472       .  S
O614        C625   1.282       .  A
O615       Zr621   2.472       .  S
O615        C626   1.300       .  A
O616       Zr621   2.522       .  S
O616        C627   1.308       .  A
O617       Zr651   2.367       .  S
O617        C627   1.277       .  A
O618       Zr650   2.428       .  S
O618        C626   1.291       .  A
O619       Zr621   2.374       .  S
O619        C625   1.259       .  A
O620       Zr621   2.389       .  S
O620        C624   1.284       .  A
Zr621       O622   2.341       .  S
Zr621       O623   2.338       .  S
Zr621       O631   2.318       .  S
Zr621       O629   2.376       .  S
O622       Zr648   2.374       .  S
O622       Zr651   2.328       .  S
O623       Zr649   2.325       .  S
O623       Zr650   2.328       .  S
C624       C1887   1.473       .  S
C625        C722   1.488       .  S
C626       C1548   1.478       .  S
C627       C1131   1.493       .  S
H628        O629   0.968       .  S
O629       Zr648   2.396       .  S
O629       Zr650   2.342       .  S
H630        O631   0.964       .  S
O631       Zr649   2.324       .  S
O631       Zr651   2.348       .  S
O632       Zr648   2.508       .  S
O632        C655   1.304       .  A
O633       Zr649   2.463       .  S
O633        C656   1.295       .  A
O634       Zr650   2.450       .  S
O634        C657   1.293       .  A
O635       Zr651   2.482       .  S
O635        C658   1.298       .  A
O636       Zr651   2.462       .  S
O636        C659   1.295       .  A
O637       Zr650   2.488       .  S
O637        C660   1.301       .  A
O638       Zr652   2.496       .  S
O638        C661   1.302       .  A
O639       Zr652   2.479       .  S
O639        C662   1.298       .  A
O640       Zr650   2.387       .  S
O640        C661   1.284       .  A
O641       Zr651   2.416       .  S
O641        C662   1.288       .  A
O642       Zr648   2.413       .  S
O642        C657   1.287       .  A
O643       Zr649   2.390       .  S
O643        C660   1.284       .  A
O644       Zr649   2.404       .  S
O644        C659   1.286       .  A
O645       Zr648   2.383       .  S
O645        C658   1.282       .  A
O646       Zr652   2.374       .  S
O646        C655   1.280       .  A
O647       Zr652   2.420       .  S
O647        C656   1.290       .  A
Zr648       O654   2.330       .  S
Zr648       O666   2.344       .  S
Zr649       O653   2.354       .  S
Zr649       O664   2.341       .  S
Zr650       O654   2.350       .  S
Zr650       O664   2.335       .  S
Zr651       O653   2.348       .  S
Zr651       O666   2.336       .  S
Zr652       O653   2.348       .  S
Zr652       O654   2.340       .  S
Zr652       O666   2.350       .  S
Zr652       O664   2.324       .  S
C655       C1523   1.488       .  S
C656        C795   1.471       .  S
C657       C1103   1.461       .  S
C658        C781   1.489       .  S
C659       C1215   1.458       .  S
C660        C739   1.486       .  S
C661       C1187   1.489       .  S
C662       C1635   1.480       .  S
H663        O664   0.964       .  S
H665        O666   0.965       .  S
O667       Zr703   2.473       .  S
O667        C678   1.297       .  A
O668       Zr702   2.460   1_455  S
O668        C679   1.296       .  A
O669       Zr675   2.510       .  S
O669        C680   1.305       .  A
O670       Zr675   2.455   1_545  S
O670        C681   1.294       .  A
O671       Zr705   2.414   1_556  S
O671        C681   1.289       .  A
O672       Zr704   2.393       .  S
O672        C680   1.281   1_655  A
O673       Zr675   2.403   1_545  S
O673        C679   1.287       .  A
O674       Zr675   2.393       .  S
O674        C678   1.284   1_556  A
Zr675       O676   2.358   1_565  S
Zr675       O677   2.323       .  S
Zr675       O685   2.350   1_566  S
Zr675       O683   2.325   1_455  S
O676       Zr702   2.345   1_455  S
O676       Zr705   2.346   1_556  S
O677       Zr703   2.325   1_556  S
O677       Zr704   2.335   1_455  S
C678       C1688   1.467       .  S
C679       C1061   1.459       .  S
C680        C823   1.504       .  S
C681       C1607   1.460       .  S
H682        O683   0.964       .  S
O683       Zr702   2.348   1_565  S
O683       Zr704   2.328       .  S
H684        O685   0.965       .  S
O685       Zr703   2.331   1_545  S
O685       Zr705   2.334       .  S
O686       Zr702   2.494       .  S
O686        C709   1.302       .  A
O687       Zr703   2.446   1_655  S
O687        C710   1.292       .  A
O688       Zr704   2.485       .  S
O688        C711   1.300       .  A
O689       Zr705   2.463   1_556  S
O689        C712   1.296       .  A
O690       Zr705   2.497       .  S
O690        C713   1.302       .  A
O691       Zr704   2.467   1_554  S
O691        C714   1.297       .  A
O692       Zr706   2.460       .  S
O692        C715   1.296   1_545  A
O693       Zr706   2.503       .  S
O693        C716   1.303       .  A
O694       Zr704   2.402       .  S
O694        C715   1.285   1_556  A
O695       Zr705   2.384       .  S
O695        C716   1.283   1_455  A
O696       Zr702   2.388       .  S
O696        C711   1.284   1_545  A
O697       Zr703   2.395   1_655  S
O697        C714   1.284       .  A
O698       Zr703   2.380       .  S
O698        C713   1.283   1_565  A
O699       Zr702   2.416       .  S
O699        C712   1.289   1_655  A
O700       Zr706   2.381       .  S
O700        C709   1.283   1_554  A
O701       Zr706   2.399       .  S
O701        C710   1.285   1_545  A
Zr702       O708   2.321       .  S
Zr702       O720   2.330   1_556  S
Zr703       O707   2.332   1_465  S
Zr703       O718   2.350   1_455  S
Zr704       O708   2.324   1_565  S
Zr704       O718   2.353   1_556  S
Zr705       O707   2.324   1_455  S
Zr705       O720   2.345   1_455  S
Zr706       O707   2.321       .  S
Zr706       O708   2.337   1_554  S
Zr706       O720   2.326       .  S
Zr706       O718   2.354   1_545  S
C709       C1576   1.483       .  S
C710       C1156   1.457       .  S
C711       C1142   1.473       .  S
C712        C809   1.466       .  S
C713       C1072   1.492       .  S
C714        C753   1.469       .  S
C715       C1663   1.463       .  S
C716        C764   1.486       .  S
H717        O718   0.966       .  S
H719        O720   0.964       .  S
C721        C722   1.403       .  A
C721        C726   1.411       .  A
C721        H728   1.083       .  S
C722        C723   1.424       .  A
C723        C724   1.399       .  A
C723        N730   1.433       .  S
C724        C725   1.395       .  A
C724        H729   1.084       .  S
C725        C726   1.412       .  A
C726        N727   1.431       .  S
N727        H731   1.045       .  S
N727        H732   1.045       .  S
N730        H733   1.046       .  S
N730        H734   1.046       .  S
C735        C736   1.413       .  A
C735        C740   1.403       .  A
C735        H742   1.084       .  S
C736        C737   1.402       .  A
C737        C738   1.400       .  A
C737        N744   1.432       .  S
C738        C739   1.414       .  A
C738        H743   1.084       .  S
C739        C740   1.409       .  A
C740        N741   1.431       .  S
N741        H745   1.045       .  S
N741        H746   1.045       .  S
N744        H747   1.046       .  S
N744        H748   1.045       .  S
C749        C750   1.408       .  A
C749        C754   1.404       .  A
C749        H756   1.084       .  S
C750        C751   1.405   1_655  A
C751        C752   1.403   1_455  A
C751        N758   1.437       .  S
C752        C753   1.406       .  A
C752        H757   1.084   1_655  S
C753        C754   1.412       .  A
C754        N755   1.439       .  S
N755        H759   1.046       .  S
N755        H760   1.043       .  S
N758        H761   1.045       .  S
N758        H762   1.045       .  S
C763        C764   1.407       .  A
C763        C768   1.410       .  A
C763        H770   1.084       .  S
C764        C765   1.418   1_655  A
C765        C766   1.400       .  A
C765        N772   1.440       .  S
C766        C767   1.398   1_455  A
C766        H771   1.084       .  S
C767        C768   1.415       .  A
C768        N769   1.432       .  S
N769        H773   1.045       .  S
N769        H774   1.045       .  S
N772        H775   1.046       .  S
N772        H776   1.046       .  S
C777        C778   1.415       .  A
C777        C782   1.415       .  A
C777        H784   1.084       .  S
C778        C779   1.394       .  A
C779        C780   1.390       .  A
C779        N786   1.433       .  S
C780        C781   1.413       .  A
C780        H785   1.082       .  S
C781        C782   1.411       .  A
C782        N783   1.437       .  S
N783        H787   1.046       .  S
N783        H788   1.045       .  S
N786        H789   1.046       .  S
N786        H790   1.045       .  S
C791        C792   1.397       .  A
C791        C796   1.401       .  A
C791        H798   1.084       .  S
C792        C793   1.410       .  A
C793        C794   1.408       .  A
C793        N800   1.432       .  S
C794        C795   1.403       .  A
C794        H799   1.084       .  S
C795        C796   1.409       .  A
C796        N797   1.432       .  S
N797        H801   1.045       .  S
N797        H802   1.045       .  S
N800        H803   1.045       .  S
N800        H804   1.046       .  S
C805        C806   1.405       .  A
C805        C810   1.405       .  A
C805        H812   1.084       .  S
C806        C807   1.402   1_455  A
C807        C808   1.401       .  A
C807        N814   1.432       .  S
C808        C809   1.405   1_655  A
C808        H813   1.084       .  S
C809        C810   1.406       .  A
C810        N811   1.437       .  S
N811        H815   1.046       .  S
N811        H816   1.045       .  S
N814        H817   1.045       .  S
N814        H818   1.046       .  S
C819        C820   1.386   1_655  A
C819        C824   1.392       .  A
C819        H826   1.085       .  S
C820        C821   1.413       .  A
C821        C822   1.413       .  A
C821        N828   1.432       .  S
C822        C823   1.406       .  A
C822        H827   1.083       .  S
C823        C824   1.434   1_455  A
C824        N825   1.427       .  S
N825        H829   1.044       .  S
N825        H830   1.037       .  S
N828        H831   1.046       .  S
N828        H832   1.045       .  S
C833        C834   1.403       .  A
C833        C838   1.389       .  A
C833        H840   1.083       .  S
C834        C835   1.423       .  A
C835        C836   1.395       .  A
C835        N842   1.433       .  S
C836        C837   1.401       .  A
C836        H841   1.081       .  S
C837        C838   1.409       .  A
C838        N839   1.433       .  S
N839        H843   1.046       .  S
N839        H844   1.046       .  S
N842        H845   1.045       .  S
N842        H846   1.046       .  S
C847        C848   1.406       .  A
C847        C852   1.405       .  A
C847        H854   1.084       .  S
C848        C849   1.409       .  A
C849        C850   1.412       .  A
C849        N856   1.437       .  S
C850        C851   1.407       .  A
C850        H855   1.084       .  S
C851        C852   1.409       .  A
C852        N853   1.438       .  S
N853        H857   1.046       .  S
N853        H858   1.045       .  S
N856        H859   1.046       .  S
N856        H860   1.046       .  S
C861        C862   1.398       .  A
C861        C866   1.405       .  A
C861        H868   1.083       .  S
C862        C863   1.417       .  A
C863        C864   1.397       .  A
C863        N870   1.432       .  S
C864        C865   1.400       .  A
C864        H869   1.084       .  S
C865        C866   1.413       .  A
C866        N867   1.438       .  S
N867        H871   1.046       .  S
N867        H872   1.044       .  S
N870        H873   1.040   1_455  S
N870        H874   1.045       .  S
C875        C876   1.400       .  A
C875        C880   1.397       .  A
C875        H882   1.084       .  S
C876        C877   1.408       .  A
C877        C878   1.401       .  A
C877        N884   1.432       .  S
C878        C879   1.401       .  A
C878        H883   1.084       .  S
C879        C880   1.414       .  A
C880        N881   1.432       .  S
N881        H885   1.045       .  S
N881        H886   1.044       .  S
N884        H887   1.045       .  S
N884        H888   1.046       .  S
C889        C890   1.396       .  A
C889        C894   1.402       .  A
C889        H896   1.084       .  S
C890        C891   1.405       .  A
C891        C892   1.406       .  A
C891        N898   1.433       .  S
C892        C893   1.409       .  A
C892        H897   1.083       .  S
C893        C894   1.415       .  A
C894        N895   1.431       .  S
N895        H899   1.046       .  S
N895        H900   1.045       .  S
N898        H901   1.046       .  S
N898        H902   1.046       .  S
C903        C904   1.399       .  A
C903        C908   1.400       .  A
C903        H910   1.084       .  S
C904        C905   1.410       .  A
C905        C906   1.406       .  A
C905        N912   1.432       .  S
C906        C907   1.410       .  A
C906        H911   1.083       .  S
C907        C908   1.416       .  A
C908        N909   1.432       .  S
N909        H913   1.046       .  S
N909        H914   1.046       .  S
N912        H915   1.045       .  S
N912        H916   1.046       .  S
C917        C918   1.408       .  A
C917        C922   1.414       .  A
C917        H924   1.082       .  S
C918        C919   1.429       .  A
C919        C920   1.405       .  A
C919        N926   1.433       .  S
C920        C921   1.405       .  A
C920        H925   1.084       .  S
C921        C922   1.416       .  A
C922        N923   1.430       .  S
N923        H927   1.045       .  S
N923        H928   1.046       .  S
N926        H929   1.045       .  S
N926        H930   1.046       .  S
C931        C932   1.406       .  A
C931        C936   1.401       .  A
C931        H938   1.083       .  S
C932        C933   1.415       .  A
C933        C934   1.395       .  A
C933        N940   1.433       .  S
C934        C935   1.398       .  A
C934        H939   1.082       .  S
C935        C936   1.413       .  A
C936        N937   1.438       .  S
N937        H941   1.046       .  S
N937        H942   1.045       .  S
N940        H943   1.046       .  S
N940        H944   1.045       .  S
C945        C946   1.405       .  A
C945        C950   1.407       .  A
C945        H952   1.084       .  S
C946        C947   1.415       .  A
C947        C948   1.408       .  A
C947        N954   1.433       .  S
C948        C949   1.401       .  A
C948        H953   1.084       .  S
C949        C950   1.408       .  A
C950        N951   1.432       .  S
N951        H955   1.045       .  S
N951        H956   1.046       .  S
N954        H957   1.046       .  S
N954        H958   1.046       .  S
C959        C960   1.402       .  A
C959        C964   1.403       .  A
C959        H966   1.084       .  S
C960        C961   1.407       .  A
C961        C962   1.401       .  A
C961        N968   1.433       .  S
C962        C963   1.400       .  A
C962        H967   1.084       .  S
C963        C964   1.408       .  A
C964        N965   1.433       .  S
N965        H969   1.045       .  S
N965        H970   1.045       .  S
N968        H971   1.045       .  S
N968        H972   1.046       .  S
C973        C974   1.397       .  A
C973        C978   1.398       .  A
C973        H980   1.084       .  S
C974        C975   1.409       .  A
C975        C976   1.390       .  A
C975        N982   1.434       .  S
C976        C977   1.400       .  A
C976        H981   1.084       .  S
C977        C978   1.410       .  A
C978        N979   1.438       .  S
N979        H983   1.046       .  S
N979        H984   1.044       .  S
N982        H985   1.046       .  S
N982        H986   1.045       .  S
C987        C988   1.409       .  A
C987        C992   1.412       .  A
C987        H994   1.083       .  S
C988        C989   1.420       .  A
C989        C990   1.407       .  A
C989        N996   1.433       .  S
C990        C991   1.404       .  A
C990        H995   1.084       .  S
C991        C992   1.415       .  A
C992        N993   1.431       .  S
N993        H997   1.046       .  S
N993        H998   1.046       .  S
N996        H999   1.046       .  S
N996       H1000   1.046       .  S
C1001      C1002   1.407       .  A
C1001      C1006   1.405       .  A
C1001      H1008   1.083       .  S
C1002      C1003   1.422       .  A
C1003      C1004   1.403       .  A
C1003      N1010   1.433       .  S
C1004      C1005   1.397       .  A
C1004      H1009   1.084       .  S
C1005      C1006   1.409       .  A
C1006      N1007   1.429       .  S
N1007      H1011   1.046       .  S
N1007      H1012   1.045       .  S
N1010      H1013   1.045       .  S
N1010      H1014   1.046       .  S
C1015      C1016   1.408       .  A
C1015      C1020   1.395       .  A
C1015      H1022   1.084       .  S
C1016      C1017   1.416       .  A
C1017      C1018   1.404       .  A
C1017      N1024   1.439       .  S
C1018      C1019   1.401       .  A
C1018      H1023   1.081       .  S
C1019      C1020   1.406       .  A
C1020      N1021   1.432       .  S
N1021      H1025   1.045       .  S
N1021      H1026   1.045       .  S
N1024      H1027   1.046       .  S
N1024      H1028   1.046       .  S
C1029      C1030   1.407       .  A
C1029      C1034   1.406       .  A
C1029      H1036   1.083       .  S
C1030      C1031   1.420       .  A
C1031      C1032   1.403       .  A
C1031      N1038   1.433       .  S
C1032      C1033   1.403       .  A
C1032      H1037   1.084       .  S
C1033      C1034   1.410       .  A
C1034      N1035   1.430       .  S
N1035      H1039   1.045       .  S
N1035      H1040   1.046       .  S
N1038      H1041   1.045       .  S
N1038      H1042   1.046       .  S
C1043      C1044   1.400       .  A
C1043      C1048   1.392       .  A
C1043      H1050   1.084       .  S
C1044      C1045   1.414       .  A
C1045      C1046   1.399       .  A
C1045      N1052   1.433       .  S
C1046      C1047   1.403       .  A
C1046      H1051   1.083       .  S
C1047      C1048   1.412       .  A
C1048      N1049   1.433       .  S
N1049      H1053   1.046       .  S
N1049      H1054   1.045       .  S
N1052      H1055   1.046       .  S
N1052      H1056   1.045       .  S
C1057      C1058   1.403       .  A
C1057      C1062   1.394       .  A
C1057      H1064   1.084       .  S
C1058      C1059   1.403   1_545  A
C1059      C1060   1.401   1_565  A
C1059      N1066   1.432       .  S
C1060      C1061   1.405       .  A
C1060      H1065   1.085   1_545  S
C1061      C1062   1.408       .  A
C1062      N1063   1.432       .  S
N1063      H1067   1.045       .  S
N1063      H1068   1.045       .  S
N1066      H1069   1.046       .  S
N1066      H1070   1.046       .  S
C1071      C1072   1.414       .  A
C1071      C1076   1.400       .  A
C1071      H1078   1.084   1_545  S
C1072      C1073   1.406       .  A
C1073      C1074   1.412       .  A
C1073      N1080   1.432       .  S
C1074      C1075   1.415       .  A
C1074      H1079   1.084       .  S
C1075      C1076   1.401       .  A
C1076      N1077   1.432   1_545  S
N1077      H1081   1.046       .  S
N1077      H1082   1.046       .  S
N1080      H1083   1.046       .  S
N1080      H1084   1.045       .  S
C1085      C1086   1.398       .  A
C1085      C1090   1.401       .  A
C1085      H1092   1.084       .  S
C1086      C1087   1.412       .  A
C1087      C1088   1.394       .  A
C1087      N1094   1.434       .  S
C1088      C1089   1.411       .  A
C1088      H1093   1.076       .  S
C1089      C1090   1.419       .  A
C1090      N1091   1.432       .  S
N1091      H1095   1.046       .  S
N1091      H1096   1.045       .  S
N1094      H1097   1.044       .  S
N1094      H1098   1.045       .  S
C1099      C1100   1.407       .  A
C1099      C1104   1.404       .  A
C1099      H1106   1.084       .  S
C1100      C1101   1.405       .  A
C1101      C1102   1.401       .  A
C1101      N1108   1.430       .  S
C1102      C1103   1.402       .  A
C1102      H1107   1.084       .  S
C1103      C1104   1.405       .  A
C1104      N1105   1.438       .  S
N1105      H1109   1.046       .  S
N1105      H1110   1.046       .  S
N1108      H1111   1.046       .  S
N1108      H1112   1.045       .  S
C1113      C1114   1.406       .  A
C1113      C1118   1.395       .  A
C1113      H1120   1.076       .  S
C1114      C1115   1.419       .  A
C1115      C1116   1.398       .  A
C1115      N1122   1.433       .  S
C1116      C1117   1.398       .  A
C1116      H1121   1.084       .  S
C1117      C1118   1.417       .  A
C1118      N1119   1.432       .  S
N1119      H1123   1.045       .  S
N1119      H1124   1.044       .  S
N1122      H1125   1.046       .  S
N1122      H1126   1.045       .  S
C1127      C1128   1.388       .  A
C1127      C1132   1.396       .  A
C1127      H1134   1.085       .  S
C1128      C1129   1.424       .  A
C1129      C1130   1.407       .  A
C1129      N1136   1.436       .  S
C1130      C1131   1.399       .  A
C1130      H1135   1.084       .  S
C1131      C1132   1.431       .  A
C1132      N1133   1.434       .  S
N1133      H1137   1.046       .  S
N1133      H1138   1.046       .  S
N1136      H1139   1.043       .  S
N1136      H1140   1.045       .  S
C1141      C1142   1.407       .  A
C1141      C1146   1.416       .  A
C1141      H1148   1.084       .  S
C1142      C1143   1.405   1_565  A
C1143      C1144   1.395       .  A
C1143      N1150   1.434       .  S
C1144      C1145   1.404       .  A
C1144      H1149   1.084       .  S
C1145      C1146   1.413   1_545  A
C1146      N1147   1.431       .  S
N1147      H1151   1.045       .  S
N1147      H1152   1.045       .  S
N1150      H1153   1.045       .  S
N1150      H1154   1.046       .  S
C1155      C1156   1.397       .  A
C1155      C1160   1.402       .  A
C1155      H1162   1.084       .  S
C1156      C1157   1.416   1_565  A
C1157      C1158   1.398       .  A
C1157      N1164   1.439       .  S
C1158      C1159   1.397       .  A
C1158      H1163   1.084       .  S
C1159      C1160   1.415   1_545  A
C1160      N1161   1.438       .  S
N1161      H1165   1.046       .  S
N1161      H1166   1.044       .  S
N1164      H1167   1.044       .  S
N1164      H1168   1.046       .  S
C1169      C1170   1.405       .  A
C1169      C1174   1.404       .  A
C1169      H1176   1.083       .  S
C1170      C1171   1.415       .  A
C1171      C1172   1.409       .  A
C1171      N1178   1.433       .  S
C1172      C1173   1.413       .  A
C1172      H1177   1.076       .  S
C1173      C1174   1.417       .  A
C1174      N1175   1.433       .  S
N1175      H1179   1.046       .  S
N1175      H1180   1.046       .  S
N1178      H1181   1.046       .  S
N1178      H1182   1.046       .  S
C1183      C1184   1.413       .  A
C1183      C1188   1.410       .  A
C1183      H1190   1.083       .  S
C1184      C1185   1.404       .  A
C1185      C1186   1.401       .  A
C1185      N1192   1.432       .  S
C1186      C1187   1.413       .  A
C1186      H1191   1.084       .  S
C1187      C1188   1.407       .  A
C1188      N1189   1.436       .  S
N1189      H1193   1.046       .  S
N1189      H1194   1.045       .  S
N1192      H1195   1.046       .  S
N1192      H1196   1.046       .  S
C1197      C1198   1.410       .  A
C1197      C1202   1.397       .  A
C1197      H1204   1.072       .  S
C1198      C1199   1.418       .  A
C1199      C1200   1.401       .  A
C1199      N1206   1.434       .  S
C1200      C1201   1.402       .  A
C1200      H1205   1.084       .  S
C1201      C1202   1.406       .  A
C1202      N1203   1.440       .  S
N1203      H1207   1.046       .  S
N1203      H1208   1.046       .  S
N1206      H1209   1.046       .  S
N1206      H1210   1.046       .  S
C1211      C1212   1.399       .  A
C1211      C1216   1.404       .  A
C1211      H1218   1.084       .  S
C1212      C1213   1.408       .  A
C1213      C1214   1.395       .  A
C1213      N1220   1.432       .  S
C1214      C1215   1.395       .  A
C1214      H1219   1.085       .  S
C1215      C1216   1.414       .  A
C1216      N1217   1.438       .  S
N1217      H1221   1.046       .  S
N1217      H1222   1.044       .  S
N1220      H1223   1.046       .  S
N1220      H1224   1.045       .  S
C1225      C1226   1.407       .  A
C1225      C1230   1.408       .  A
C1225      H1232   1.078       .  S
C1226      C1227   1.420   1_655  A
C1227      C1228   1.396       .  A
C1227      N1234   1.433       .  S
C1228      C1229   1.398   1_455  A
C1228      H1233   1.084       .  S
C1229      C1230   1.417       .  A
C1230      N1231   1.437       .  S
N1231      H1235   1.046       .  S
N1231      H1236   1.044       .  S
N1234      H1237   1.046       .  S
N1234      H1238   1.046       .  S
C1239      C1240   1.405       .  A
C1239      C1244   1.403       .  A
C1239      H1246   1.084       .  S
C1240      C1241   1.413   1_655  A
C1241      C1242   1.391       .  A
C1241      N1248   1.434       .  S
C1242      C1243   1.410   1_455  A
C1242      H1247   1.074       .  S
C1243      C1244   1.415       .  A
C1244      N1245   1.433       .  S
N1245      H1249   1.046       .  S
N1245      H1250   1.046       .  S
N1248      H1251   1.045       .  S
N1248      H1252   1.045       .  S
C1253      C1254   1.404       .  A
C1253      C1258   1.400       .  A
C1253      H1260   1.084       .  S
C1254      C1255   1.413       .  A
C1255      C1256   1.407       .  A
C1255      N1262   1.438       .  S
C1256      C1257   1.401       .  A
C1256      H1261   1.084       .  S
C1257      C1258   1.403       .  A
C1258      N1259   1.432       .  S
N1259      H1263   1.045       .  S
N1259      H1264   1.046       .  S
N1262      H1265   1.045       .  S
N1262      H1266   1.046       .  S
C1267      C1268   1.412       .  A
C1267      C1272   1.408       .  A
C1267      H1274   1.083       .  S
C1268      C1269   1.416       .  A
C1269      C1270   1.400       .  A
C1269      N1276   1.433       .  S
C1270      C1271   1.399       .  A
C1270      H1275   1.084       .  S
C1271      C1272   1.406       .  A
C1272      N1273   1.438       .  S
N1273      H1277   1.045       .  S
N1273      H1278   1.046       .  S
N1276      H1279   1.046       .  S
N1276      H1280   1.046       .  S
C1281      C1282   1.407       .  A
C1281      C1286   1.400       .  A
C1281      H1288   1.083       .  S
C1282      C1283   1.417       .  A
C1283      C1284   1.408       .  A
C1283      N1290   1.433       .  S
C1284      C1285   1.406       .  A
C1284      H1289   1.084       .  S
C1285      C1286   1.415       .  A
C1286      N1287   1.428       .  S
N1287      H1291   1.043       .  S
N1287      H1292   1.043       .  S
N1290      H1293   1.046       .  S
N1290      H1294   1.046       .  S
C1295      C1296   1.404       .  A
C1295      C1300   1.401       .  A
C1295      H1302   1.084       .  S
C1296      C1297   1.406       .  A
C1297      C1298   1.403       .  A
C1297      N1304   1.430       .  S
C1298      C1299   1.408       .  A
C1298      H1303   1.083       .  S
C1299      C1300   1.418       .  A
C1300      N1301   1.434       .  S
N1301      H1305   1.046       .  S
N1301      H1306   1.046       .  S
N1304      H1307   1.045       .  S
N1304      H1308   1.046       .  S
C1309      C1310   1.396       .  A
C1309      C1314   1.393       .  A
C1309      H1316   1.085       .  S
C1310      C1311   1.411       .  A
C1311      C1312   1.398       .  A
C1311      N1318   1.439       .  S
C1312      C1313   1.409       .  A
C1312      H1317   1.083       .  S
C1313      C1314   1.409       .  A
C1314      N1315   1.432       .  S
N1315      H1319   1.046       .  S
N1315      H1320   1.046       .  S
N1318      H1321   1.044       .  S
N1318      H1322   1.045       .  S
C1323      C1324   1.403       .  A
C1323      C1328   1.406       .  A
C1323      H1330   1.084       .  S
C1324      C1325   1.417       .  A
C1325      C1326   1.415       .  A
C1325      N1332   1.438       .  S
C1326      C1327   1.404       .  A
C1326      H1331   1.084       .  S
C1327      C1328   1.411       .  A
C1328      N1329   1.432       .  S
N1329      H1333   1.046       .  S
N1329      H1334   1.046       .  S
N1332      H1335   1.046       .  S
N1332      H1336   1.046       .  S
C1337      C1338   1.412       .  A
C1337      C1342   1.406       .  A
C1337      H1344   1.083       .  S
C1338      C1339   1.425       .  A
C1339      C1340   1.402       .  A
C1339      N1346   1.432       .  S
C1340      C1341   1.401       .  A
C1340      H1345   1.084       .  S
C1341      C1342   1.408       .  A
C1342      N1343   1.433       .  S
N1343      H1347   1.045       .  S
N1343      H1348   1.046       .  S
N1346      H1349   1.046       .  S
N1346      H1350   1.045       .  S
C1351      C1352   1.406       .  A
C1351      C1356   1.402       .  A
C1351      H1358   1.084       .  S
C1352      C1353   1.413       .  A
C1353      C1354   1.409       .  A
C1353      N1360   1.438       .  S
C1354      C1355   1.403       .  A
C1354      H1359   1.084       .  S
C1355      C1356   1.401       .  A
C1356      N1357   1.432       .  S
N1357      H1361   1.045       .  S
N1357      H1362   1.045       .  S
N1360      H1363   1.045       .  S
N1360      H1364   1.046       .  S
C1365      C1366   1.411       .  A
C1365      C1370   1.393       .  A
C1365      H1372   1.076       .  S
C1366      C1367   1.427   1_655  A
C1367      C1368   1.399       .  A
C1367      N1374   1.435       .  S
C1368      C1369   1.403   1_455  A
C1368      H1373   1.084       .  S
C1369      C1370   1.407       .  A
C1370      N1371   1.433       .  S
N1371      H1375   1.046       .  S
N1371      H1376   1.046       .  S
N1374      H1377   1.043       .  S
N1374      H1378   1.041       .  S
C1379      C1380   1.402   1_455  A
C1379      C1384   1.394       .  A
C1379      H1386   1.084       .  S
C1380      C1381   1.410       .  A
C1381      C1382   1.399       .  A
C1381      N1388   1.433       .  S
C1382      C1383   1.411       .  A
C1382      H1387   1.075       .  S
C1383      C1384   1.427   1_655  A
C1384      N1385   1.436       .  S
N1385      H1389   1.042       .  S
N1385      H1390   1.042       .  S
N1388      H1391   1.046       .  S
N1388      H1392   1.046       .  S
C1393      C1394   1.402       .  A
C1393      C1398   1.400       .  A
C1393      H1400   1.084       .  S
C1394      C1395   1.407       .  A
C1395      C1396   1.408       .  A
C1395      N1402   1.431       .  S
C1396      C1397   1.408       .  A
C1396      H1401   1.084       .  S
C1397      C1398   1.415       .  A
C1398      N1399   1.433       .  S
N1399      H1403   1.046       .  S
N1399      H1404   1.044       .  S
N1402      H1405   1.046       .  S
N1402      H1406   1.045       .  S
C1407      C1408   1.405       .  A
C1407      C1412   1.412       .  A
C1407      H1414   1.084       .  S
C1408      C1409   1.407       .  A
C1409      C1410   1.407       .  A
C1409      N1416   1.438       .  S
C1410      C1411   1.405       .  A
C1410      H1415   1.083       .  S
C1411      C1412   1.414       .  A
C1412      N1413   1.438       .  S
N1413      H1417   1.046       .  S
N1413      H1418   1.046       .  S
N1416      H1419   1.046       .  S
N1416      H1420   1.045       .  S
C1421      C1422   1.401       .  A
C1421      C1426   1.403       .  A
C1421      H1428   1.084       .  S
C1422      C1423   1.411       .  A
C1423      C1424   1.398       .  A
C1423      N1430   1.432       .  S
C1424      C1425   1.403       .  A
C1424      H1429   1.084       .  S
C1425      C1426   1.409       .  A
C1426      N1427   1.433       .  S
N1427      H1431   1.046       .  S
N1427      H1432   1.045       .  S
N1430      H1433   1.045       .  S
N1430      H1434   1.045       .  S
C1435      C1436   1.411       .  A
C1435      C1440   1.411       .  A
C1435      H1442   1.083       .  S
C1436      C1437   1.419       .  A
C1437      C1438   1.410       .  A
C1437      N1444   1.432       .  S
C1438      C1439   1.406       .  A
C1438      H1443   1.084       .  S
C1439      C1440   1.413       .  A
C1440      N1441   1.431       .  S
N1441      H1445   1.045       .  S
N1441      H1446   1.046       .  S
N1444      H1447   1.046       .  S
N1444      H1448   1.045       .  S
C1449      C1450   1.406       .  A
C1449      C1454   1.406       .  A
C1449      H1456   1.083       .  S
C1450      C1451   1.416       .  A
C1451      C1452   1.414       .  A
C1451      N1458   1.430   1_565  S
C1452      C1453   1.408       .  A
C1452      H1457   1.083       .  S
C1453      C1454   1.419       .  A
C1454      N1455   1.433       .  S
N1455      H1459   1.046       .  S
N1455      H1460   1.046       .  S
N1458      H1461   1.045       .  S
N1458      H1462   1.045       .  S
C1463      C1464   1.398       .  A
C1463      C1468   1.401       .  A
C1463      H1470   1.084       .  S
C1464      C1465   1.405       .  A
C1465      C1466   1.404       .  A
C1465      N1472   1.438       .  S
C1466      C1467   1.407       .  A
C1466      H1471   1.083       .  S
C1467      C1468   1.413       .  A
C1468      N1469   1.432       .  S
N1469      H1473   1.046       .  S
N1469      H1474   1.046       .  S
N1472      H1475   1.045       .  S
N1472      H1476   1.046       .  S
C1477      C1478   1.408       .  A
C1477      C1482   1.398       .  A
C1477      H1484   1.083       .  S
C1478      C1479   1.420       .  A
C1479      C1480   1.405       .  A
C1479      N1486   1.433       .  S
C1480      C1481   1.401       .  A
C1480      H1485   1.083       .  S
C1481      C1482   1.413       .  A
C1482      N1483   1.433       .  S
N1483      H1487   1.042       .  S
N1483      H1488   1.045       .  S
N1486      H1489   1.046       .  S
N1486      H1490   1.046       .  S
C1491      C1492   1.407       .  A
C1491      C1496   1.401       .  A
C1491      H1498   1.083       .  S
C1492      C1493   1.422       .  A
C1493      C1494   1.403       .  A
C1493      N1500   1.432       .  S
C1494      C1495   1.397       .  A
C1494      H1499   1.084       .  S
C1495      C1496   1.409       .  A
C1496      N1497   1.432       .  S
N1497      H1501   1.046   1_565  S
N1497      H1502   1.046   1_565  S
N1500      H1503   1.046       .  S
N1500      H1504   1.046       .  S
C1505      C1506   1.404       .  A
C1505      C1510   1.395       .  A
C1505      H1512   1.076       .  S
C1506      C1507   1.420       .  A
C1507      C1508   1.394       .  A
C1507      N1514   1.434       .  S
C1508      C1509   1.398       .  A
C1508      H1513   1.084       .  S
C1509      C1510   1.413       .  A
C1510      N1511   1.434       .  S
N1511      H1515   1.046       .  S
N1511      H1516   1.046       .  S
N1514      H1517   1.046       .  S
N1514      H1518   1.046       .  S
C1519      C1520   1.388       .  A
C1519      C1524   1.395       .  A
C1519      H1526   1.084       .  S
C1520      C1521   1.418       .  A
C1521      C1522   1.410       .  A
C1521      N1528   1.432       .  S
C1522      C1523   1.401       .  A
C1522      H1527   1.083       .  S
C1523      C1524   1.424       .  A
C1524      N1525   1.431       .  S
N1525      H1529   1.046       .  S
N1525      H1530   1.045       .  S
N1528      H1531   1.046       .  S
N1528      H1532   1.046       .  S
C1533      C1534   1.409       .  A
C1533      C1538   1.399       .  A
C1533      H1540   1.075       .  S
C1534      C1535   1.419       .  A
C1535      C1536   1.409       .  A
C1535      N1542   1.433       .  S
C1536      C1537   1.403       .  A
C1536      H1541   1.084       .  S
C1537      C1538   1.419       .  A
C1538      N1539   1.433       .  S
N1539      H1543   1.045       .  S
N1539      H1544   1.044       .  S
N1542      H1545   1.045       .  S
N1542      H1546   1.046       .  S
C1547      C1548   1.406       .  A
C1547      C1552   1.401       .  A
C1547      H1554   1.084       .  S
C1548      C1549   1.408       .  A
C1549      C1550   1.410       .  A
C1549      N1556   1.432       .  S
C1550      C1551   1.406       .  A
C1550      H1555   1.084       .  S
C1551      C1552   1.401       .  A
C1552      N1553   1.433       .  S
N1553      H1557   1.045       .  S
N1553      H1558   1.045       .  S
N1556      H1559   1.046       .  S
N1556      H1560   1.045       .  S
C1561      C1562   1.400       .  A
C1561      C1566   1.396       .  A
C1561      H1568   1.084       .  S
C1562      C1563   1.415   1_556  A
C1563      C1564   1.397       .  A
C1563      N1570   1.434       .  S
C1564      C1565   1.406   1_554  A
C1564      H1569   1.076       .  S
C1565      C1566   1.417       .  A
C1566      N1567   1.434       .  S
N1567      H1571   1.046       .  S
N1567      H1572   1.046       .  S
N1570      H1573   1.046       .  S
N1570      H1574   1.046       .  S
C1575      C1576   1.411       .  A
C1575      C1580   1.398       .  A
C1575      H1582   1.084   1_556  S
C1576      C1577   1.405       .  A
C1577      C1578   1.410       .  A
C1577      N1584   1.437       .  S
C1578      C1579   1.414       .  A
C1578      H1583   1.083       .  S
C1579      C1580   1.403       .  A
C1580      N1581   1.432   1_556  S
N1581      H1585   1.046       .  S
N1581      H1586   1.046       .  S
N1584      H1587   1.046       .  S
N1584      H1588   1.046       .  S
C1589      C1590   1.402   1_556  A
C1589      C1594   1.408       .  A
C1589      H1596   1.084       .  S
C1590      C1591   1.414       .  A
C1591      C1592   1.408       .  A
C1591      N1598   1.434       .  S
C1592      C1593   1.416       .  A
C1592      H1597   1.074       .  S
C1593      C1594   1.433   1_554  A
C1594      N1595   1.434       .  S
N1595      H1599   1.041       .  S
N1595      H1600   1.042       .  S
N1598      H1601   1.046       .  S
N1598      H1602   1.046       .  S
C1603      C1604   1.404       .  A
C1603      C1608   1.400       .  A
C1603      H1610   1.084       .  S
C1604      C1605   1.405   1_556  A
C1605      C1606   1.402   1_554  A
C1605      N1612   1.429       .  S
C1606      C1607   1.402       .  A
C1606      H1611   1.085   1_556  S
C1607      C1608   1.403       .  A
C1608      N1609   1.431       .  S
N1609      H1613   1.045       .  S
N1609      H1614   1.045       .  S
N1612      H1615   1.045       .  S
N1612      H1616   1.046       .  S
C1617      C1618   1.405       .  A
C1617      C1622   1.402       .  A
C1617      H1624   1.084       .  S
C1618      C1619   1.410       .  A
C1619      C1620   1.396       .  A
C1619      N1626   1.434       .  S
C1620      C1621   1.411       .  A
C1620      H1625   1.077       .  S
C1621      C1622   1.428       .  A
C1622      N1623   1.434       .  S
N1623      H1627   1.043       .  S
N1623      H1628   1.041       .  S
N1626      H1629   1.046       .  S
N1626      H1630   1.046       .  S
C1631      C1632   1.397       .  A
C1631      C1636   1.405       .  A
C1631      H1638   1.084       .  S
C1632      C1633   1.415       .  A
C1633      C1634   1.406       .  A
C1633      N1640   1.432       .  S
C1634      C1635   1.403       .  A
C1634      H1639   1.084       .  S
C1635      C1636   1.414       .  A
C1636      N1637   1.438       .  S
N1637      H1641   1.046       .  S
N1637      H1642   1.046       .  S
N1640      H1643   1.045       .  S
N1640      H1644   1.044       .  S
C1645      C1646   1.409       .  A
C1645      C1650   1.416       .  A
C1645      H1652   1.084       .  S
C1646      C1647   1.418   1_556  A
C1647      C1648   1.399       .  A
C1647      N1654   1.434       .  S
C1648      C1649   1.412   1_554  A
C1648      H1653   1.073       .  S
C1649      C1650   1.419       .  A
C1650      N1651   1.432       .  S
N1651      H1655   1.046       .  S
N1651      H1656   1.045       .  S
N1654      H1657   1.045       .  S
N1654      H1658   1.044       .  S
C1659      C1660   1.402   1_556  A
C1659      C1664   1.406       .  A
C1659      H1666   1.084       .  S
C1660      C1661   1.409       .  A
C1661      C1662   1.401       .  A
C1661      N1668   1.432       .  S
C1662      C1663   1.397       .  A
C1662      H1667   1.084       .  S
C1663      C1664   1.411   1_554  A
C1664      N1665   1.434       .  S
N1665      H1669   1.045   1_565  S
N1665      H1670   1.046       .  S
N1668      H1671   1.045       .  S
N1668      H1672   1.046       .  S
C1673      C1674   1.413   1_556  A
C1673      C1678   1.404       .  A
C1673      H1680   1.077       .  S
C1674      C1675   1.429       .  A
C1675      C1676   1.397       .  A
C1675      N1682   1.435       .  S
C1676      C1677   1.402       .  A
C1676      H1681   1.084       .  S
C1677      C1678   1.410   1_554  A
C1678      N1679   1.433       .  S
N1679      H1683   1.046       .  S
N1679      H1684   1.046       .  S
N1682      H1685   1.043       .  S
N1682      H1686   1.042       .  S
C1687      C1688   1.405       .  A
C1687      C1692   1.412       .  A
C1687      H1694   1.084       .  S
C1688      C1689   1.403   1_554  A
C1689      C1690   1.395       .  A
C1689      N1696   1.434       .  S
C1690      C1691   1.409   1_556  A
C1690      H1695   1.084       .  S
C1691      C1692   1.412       .  A
C1692      N1693   1.431       .  S
N1693      H1697   1.045       .  S
N1693      H1698   1.045       .  S
N1696      H1699   1.046       .  S
N1696      H1700   1.046       .  S
C1701      C1702   1.401   1_565  A
C1701      C1706   1.405       .  A
C1701      H1708   1.084       .  S
C1702      C1703   1.414       .  A
C1703      C1704   1.399       .  A
C1703      N1710   1.434       .  S
C1704      C1705   1.407       .  A
C1704      H1709   1.077       .  S
C1705      C1706   1.421   1_545  A
C1706      N1707   1.433       .  S
N1707      H1711   1.046       .  S
N1707      H1712   1.046       .  S
N1710      H1713   1.046       .  S
N1710      H1714   1.046       .  S
C1715      C1716   1.399       .  A
C1715      C1720   1.402       .  A
C1715      H1722   1.084       .  S
C1716      C1717   1.405   1_545  A
C1717      C1718   1.390       .  A
C1717      N1724   1.434       .  S
C1718      C1719   1.407   1_565  A
C1718      H1723   1.072       .  S
C1719      C1720   1.433       .  A
C1720      N1721   1.435       .  S
N1721      H1725   1.042       .  S
N1721      H1726   1.042       .  S
N1724      H1727   1.045       .  S
N1724      H1728   1.046       .  S
C1729      C1730   1.401       .  A
C1729      C1734   1.404       .  A
C1729      H1736   1.084       .  S
C1730      C1731   1.403       .  A
C1731      C1732   1.401       .  A
C1731      N1738   1.433       .  S
C1732      C1733   1.406       .  A
C1732      H1737   1.084       .  S
C1733      C1734   1.410       .  A
C1734      N1735   1.432       .  S
N1735      H1739   1.046       .  S
N1735      H1740   1.046       .  S
N1738      H1741   1.045       .  S
N1738      H1742   1.045       .  S
C1743      C1744   1.402       .  A
C1743      C1748   1.404       .  A
C1743      H1750   1.084       .  S
C1744      C1745   1.417       .  A
C1745      C1746   1.404       .  A
C1745      N1752   1.438       .  S
C1746      C1747   1.397       .  A
C1746      H1751   1.083       .  S
C1747      C1748   1.408       .  A
C1748      N1749   1.438       .  S
N1749      H1753   1.046       .  S
N1749      H1754   1.046       .  S
N1752      H1755   1.045       .  S
N1752      H1756   1.046       .  S
C1757      C1758   1.400       .  A
C1757      C1762   1.397       .  A
C1757      H1764   1.084       .  S
C1758      C1759   1.407       .  A
C1759      C1760   1.399       .  A
C1759      N1766   1.432       .  S
C1760      C1761   1.400       .  A
C1760      H1765   1.084       .  S
C1761      C1762   1.406       .  A
C1762      N1763   1.432       .  S
N1763      H1767   1.046       .  S
N1763      H1768   1.046       .  S
N1766      H1769   1.045       .  S
N1766      H1770   1.045       .  S
C1771      C1772   1.412       .  A
C1771      C1776   1.402       .  A
C1771      H1778   1.075       .  S
C1772      C1773   1.419       .  A
C1773      C1774   1.408       .  A
C1773      N1780   1.432       .  S
C1774      C1775   1.401       .  A
C1774      H1779   1.084       .  S
C1775      C1776   1.410       .  A
C1776      N1777   1.433       .  S
N1777      H1781   1.044       .  S
N1777      H1782   1.046       .  S
N1780      H1783   1.045       .  S
N1780      H1784   1.046       .  S
C1785      C1786   1.402       .  A
C1785      C1790   1.404       .  A
C1785      H1792   1.084       .  S
C1786      C1787   1.412       .  A
C1787      C1788   1.403       .  A
C1787      N1794   1.433       .  S
C1788      C1789   1.411       .  A
C1788      H1793   1.077       .  S
C1789      C1790   1.431       .  A
C1790      N1791   1.435       .  S
N1791      H1795   1.043       .  S
N1791      H1796   1.042       .  S
N1794      H1797   1.044       .  S
N1794      H1798   1.046       .  S
C1799      C1800   1.411       .  A
C1799      C1804   1.406       .  A
C1799      H1806   1.083       .  S
C1800      C1801   1.430       .  A
C1801      C1802   1.402       .  A
C1801      N1808   1.432       .  S
C1802      C1803   1.398       .  A
C1802      H1807   1.084       .  S
C1803      C1804   1.406       .  A
C1804      N1805   1.433       .  S
N1805      H1809   1.045       .  S
N1805      H1810   1.046       .  S
N1808      H1811   1.045       .  S
N1808      H1812   1.045       .  S
C1813      C1814   1.395       .  A
C1813      C1818   1.398       .  A
C1813      H1820   1.084       .  S
C1814      C1815   1.404       .  A
C1815      C1816   1.401       .  A
C1815      N1822   1.439       .  S
C1816      C1817   1.404       .  A
C1816      H1821   1.084       .  S
C1817      C1818   1.414       .  A
C1818      N1819   1.433       .  S
N1819      H1823   1.046       .  S
N1819      H1824   1.046       .  S
N1822      H1825   1.046   1_565  S
N1822      H1826   1.046       .  S
C1827      C1828   1.408       .  A
C1827      C1832   1.394       .  A
C1827      H1834   1.083       .  S
C1828      C1829   1.416       .  A
C1829      C1830   1.405       .  A
C1829      N1836   1.433       .  S
C1830      C1831   1.402       .  A
C1830      H1835   1.083       .  S
C1831      C1832   1.410       .  A
C1832      N1833   1.432       .  S
N1833      H1837   1.043       .  S
N1833      H1838   1.044       .  S
N1836      H1839   1.046       .  S
N1836      H1840   1.046       .  S
C1841      C1842   1.404       .  A
C1841      C1846   1.409       .  A
C1841      H1848   1.079       .  S
C1842      C1843   1.415       .  A
C1843      C1844   1.405       .  A
C1843      N1850   1.438       .  S
C1844      C1845   1.398       .  A
C1844      H1849   1.082       .  S
C1845      C1846   1.409       .  A
C1846      N1847   1.439       .  S
N1847      H1851   1.046       .  S
N1847      H1852   1.045       .  S
N1850      H1853   1.045       .  S
N1850      H1854   1.045       .  S
C1855      C1856   1.406       .  A
C1855      C1860   1.396       .  A
C1855      H1862   1.076       .  S
C1856      C1857   1.419       .  A
C1857      C1858   1.397       .  A
C1857      N1864   1.434       .  S
C1858      C1859   1.399       .  A
C1858      H1863   1.084       .  S
C1859      C1860   1.412       .  A
C1860      N1861   1.434       .  S
N1861      H1865   1.046       .  S
N1861      H1866   1.046       .  S
N1864      H1867   1.046       .  S
N1864      H1868   1.046       .  S
C1869      C1870   1.400       .  A
C1869      C1874   1.412       .  A
C1869      H1876   1.084       .  S
C1870      C1871   1.411       .  A
C1871      C1872   1.406       .  A
C1871      N1878   1.434       .  S
C1872      C1873   1.404       .  A
C1872      H1877   1.084       .  S
C1873      C1874   1.416       .  A
C1874      N1875   1.437       .  S
N1875      H1879   1.046       .  S
N1875      H1880   1.045       .  S
N1878      H1881   1.045       .  S
N1878      H1882   1.045       .  S
C1883      C1884   1.406       .  A
C1883      C1888   1.413       .  A
C1883      H1890   1.084       .  S
C1884      C1885   1.411       .  A
C1885      C1886   1.392       .  A
C1885      N1892   1.434       .  S
C1886      C1887   1.399       .  A
C1886      H1891   1.086       .  S
C1887      C1888   1.421       .  A
C1888      N1889   1.438       .  S
N1889      H1893   1.046       .  S
N1889      H1894   1.043       .  S
N1892      H1895   1.046       .  S
N1892      H1896   1.046       .  S
C1897      C1898   1.402   1_565  A
C1897      C1902   1.404       .  A
C1897      H1904   1.084       .  S
C1898      C1899   1.410       .  A
C1899      C1900   1.392       .  A
C1899      N1906   1.435       .  S
C1900      C1901   1.408       .  A
C1900      H1905   1.073       .  S
C1901      C1902   1.418   1_545  A
C1902      N1903   1.433       .  S
N1903      H1907   1.045       .  S
N1903      H1908   1.046       .  S
N1906      H1909   1.046       .  S
N1906      H1910   1.046       .  S
C1911      C1912   1.407   1_565  A
C1911      C1916   1.402       .  A
C1911      H1918   1.078       .  S
C1912      C1913   1.419       .  A
C1913      C1914   1.402       .  A
C1913      N1920   1.433       .  S
C1914      C1915   1.402       .  A
C1914      H1919   1.084       .  S
C1915      C1916   1.413   1_545  A
C1916      N1917   1.431       .  S
N1917      H1921   1.046       .  S
N1917      H1922   1.046       .  S
N1920      H1923   1.046       .  S
N1920      H1924   1.046       .  S
C1925      C1926   1.404       .  A
C1925      C1930   1.403       .  A
C1925      H1932   1.083       .  S
C1926      C1927   1.420       .  A
C1927      C1928   1.411       .  A
C1927      N1934   1.433       .  S
C1928      C1929   1.404       .  A
C1928      H1933   1.084       .  S
C1929      C1930   1.415       .  A
C1930      N1931   1.430       .  S
N1931      H1935   1.044       .  S
N1931      H1936   1.046       .  S
N1934      H1937   1.045       .  S
N1934      H1938   1.046       .  S
C1939      C1940   1.405       .  A
C1939      C1944   1.407       .  A
C1939      H1946   1.084       .  S
C1940      C1941   1.415       .  A
C1941      C1942   1.396       .  A
C1941      N1948   1.434       .  S
C1942      C1943   1.402       .  A
C1942      H1947   1.084       .  S
C1943      C1944   1.414       .  A
C1944      N1945   1.431       .  S
N1945      H1949   1.046       .  S
N1945      H1950   1.045       .  S
N1948      H1951   1.046       .  S
N1948      H1952   1.046       .  S
C1953      C1954   1.394       .  A
C1953      C1958   1.396       .  A
C1953      H1960   1.084       .  S
C1954      C1955   1.406       .  A
C1955      C1956   1.407       .  A
C1955      N1962   1.433       .  S
C1956      C1957   1.412       .  A
C1956      H1961   1.083       .  S
C1957      C1958   1.428       .  A
C1958      N1959   1.433       .  S
N1959      H1963   1.042       .  S
N1959      H1964   1.046       .  S
N1962      H1965   1.045       .  S
N1962      H1966   1.045       .  S
C1967      C1968   1.408       .  A
C1967      C1972   1.410       .  A
C1967      H1974   1.083       .  S
C1968      C1969   1.425       .  A
C1969      C1970   1.409       .  A
C1969      N1976   1.433       .  S
C1970      C1971   1.400       .  A
C1970      H1975   1.083       .  S
C1971      C1972   1.411       .  A
C1972      N1973   1.431       .  S
N1973      H1977   1.046       .  S
N1973      H1978   1.046       .  S
N1976      H1979   1.046       .  S
N1976      H1980   1.046       .  S
C1981      C1982   1.403       .  A
C1981      C1986   1.402       .  A
C1981      H1988   1.084       .  S
C1982      C1983   1.415       .  A
C1983      C1984   1.407       .  A
C1983      N1990   1.433       .  S
C1984      C1985   1.411       .  A
C1984      H1989   1.078       .  S
C1985      C1986   1.419       .  A
C1986      N1987   1.433       .  S
N1987      H1991   1.046       .  S
N1987      H1992   1.046       .  S
N1990      H1993   1.046       .  S
N1990      H1994   1.046       .  S
C1995      C1996   1.411       .  A
C1995      C2000   1.401       .  A
C1995      H2002   1.074       .  S
C1996      C1997   1.431       .  A
C1997      C1998   1.401       .  A
C1997      N2004   1.435       .  S
C1998      C1999   1.403       .  A
C1998      H2003   1.084       .  S
C1999      C2000   1.411       .  A
C2000      N2001   1.433       .  S
N2001      H2005   1.046       .  S
N2001      H2006   1.046       .  S
N2004      H2007   1.042       .  S
N2004      H2008   1.041       .  S
C2009      C2010   1.399       .  A
C2009      C2014   1.404       .  A
C2009      H2016   1.084       .  S
C2010      C2011   1.409       .  A
C2011      C2012   1.406       .  A
C2011      N2018   1.431       .  S
C2012      C2013   1.409       .  A
C2012      H2017   1.083       .  S
C2013      C2014   1.431       .  A
C2014      N2015   1.433       .  S
N2015      H2019   1.045       .  S
N2015      H2020   1.045       .  S
N2018      H2021   1.045       .  S
N2018      H2022   1.045       .  S
C2023      C2024   1.406       .  A
C2023      C2028   1.406       .  A
C2023      H2030   1.084       .  S
C2024      C2025   1.413       .  A
C2025      C2026   1.409       .  A
C2025      N2032   1.439       .  S
C2026      C2027   1.405       .  A
C2026      H2031   1.084       .  S
C2027      C2028   1.410       .  A
C2028      N2029   1.432       .  S
N2029      H2033   1.046       .  S
N2029      H2034   1.046       .  S
N2032      H2035   1.046       .  S
N2032      H2036   1.046       .  S
C2037      C2038   1.405       .  A
C2037      C2042   1.401       .  A
C2037      H2044   1.084       .  S
C2038      C2039   1.424       .  A
C2039      C2040   1.406       .  A
C2039      N2046   1.432       .  S
C2040      C2041   1.400       .  A
C2040      H2045   1.084       .  S
C2041      C2042   1.415       .  A
C2042      N2043   1.429       .  S
N2043      H2047   1.043   1_556  S
N2043      H2048   1.044       .  S
N2046      H2049   1.045       .  S
N2046      H2050   1.044       .  S
C2051      C2052   1.400       .  A
C2051      C2056   1.404       .  A
C2051      H2058   1.084       .  S
C2052      C2053   1.416       .  A
C2053      C2054   1.402       .  A
C2053      N2060   1.439       .  S
C2054      C2055   1.402       .  A
C2054      H2059   1.084       .  S
C2055      C2056   1.412       .  A
C2056      N2057   1.438       .  S
N2057      H2061   1.046       .  S
N2057      H2062   1.046       .  S
N2060      H2063   1.043       .  S
N2060      H2064   1.046       .  S
