geometry optimzed in LAMMPS
_audit_creation_date              2020-11-30 
_audit_creation_method            'lammps2cif' 
_symmetry_space_group_name_H-M    'P1' 
_symmetry_Int_Tables_number       1 
_symmetry_cell_setting            triclinic 
loop_ 
_symmetry_equiv_pos_as_xyz 
  x,y,z 
_cell_length_a                    30.20114464076518 
_cell_length_b                    30.86808487526971 
_cell_length_c                    28.891991911420693 
_cell_angle_alpha                 90.15681859303652 
_cell_angle_beta                  89.83841365744946 
_cell_angle_gamma                 90.23357614372917 
loop_ 
_atom_site_label 
_atom_site_type_symbol 
_atom_site_fract_x 
_atom_site_fract_y 
_atom_site_fract_z 
_atom_site_charge 
In1        In  0.29103814  0.61595227  0.99336495     1.36870
C2          C  0.26161111  0.64495258  0.91357606     0.77870
O3          O  0.31439320  0.68353141  0.99831060    -0.60570
O4          O  0.36330486  0.63504657  0.98703357    -0.51480
C5          C  0.27403259  0.62982425  0.08157764     0.70540
O6          O  0.24580126  0.63802315  0.05049905    -0.46340
C7          C  0.29022494  0.53117504  0.98544243     0.75240
O8          O  0.24019604  0.65139908  0.95069159    -0.58200
O9          O  0.32548667  0.55328445  0.98551602    -0.48290
O10         O  0.29323858  0.61864825  0.91738313    -0.54630
C11         C  0.35466684  0.67476493  0.99277859     0.85420
O12         O  0.30773349  0.60968781  0.06747403    -0.56520
O13         O  0.25471139  0.55252864  0.98956958    -0.59820
In14       In  0.44442268  0.77391848  0.00263240     1.36870
C15         C  0.43093636  0.78035259  0.09298433     0.77870
O16         O  0.37650300  0.74749849  0.00321514    -0.60570
O17         O  0.42885563  0.70338008  0.98847489    -0.51480
C18         C  0.41403104  0.81433994  0.92873841     0.70540
O19         O  0.40708067  0.82851810  0.96924554    -0.46340
C20         C  0.53119932  0.77758794  0.99797436     0.75240
O21         O  0.42397439  0.81191904  0.06602729    -0.58200
O22         O  0.50952341  0.74343997  0.98964115    -0.48290
O23         O  0.44802291  0.74776015  0.07380782    -0.54630
C24         C  0.38780920  0.70914894  0.99442927     0.85420
O25         O  0.44043149  0.78286094  0.92637274    -0.56520
O26         O  0.50834310  0.81074493  0.00713331    -0.59820
In27       In  0.31219042  0.89795990  0.50118848     1.36870
C28         C  0.33380282  0.86684225  0.41926061     0.77870
O29         O  0.29245440  0.82967658  0.50884771    -0.60570
O30         O  0.24074069  0.87581345  0.49898892    -0.51480
C31         C  0.33131478  0.88830659  0.58942776     0.70540
O32         O  0.35961332  0.88073308  0.55782323    -0.46340
C33         C  0.31490606  0.98220139  0.48915871     0.75240
O34         O  0.35971473  0.86233146  0.45340082    -0.58200
O35         O  0.27900528  0.96127057  0.49281048    -0.48290
O36         O  0.30207009  0.89245281  0.42653550    -0.54630
C37         C  0.25161942  0.83650078  0.50416967     0.85420
O38         O  0.29574795  0.90521451  0.57565743    -0.56520
O39         O  0.34991251  0.95996585  0.49218307    -0.59820
In40       In  0.16810557  0.73135029  0.50776118     1.36870
C41         C  0.18660550  0.72183361  0.59617456     0.77870
O42         O  0.23406951  0.76234803  0.51124494    -0.60570
O43         O  0.17921213  0.80365109  0.49875570    -0.51480
C44         C  0.20107476  0.69840287  0.43068019     0.70540
O45         O  0.20640510  0.67973347  0.46917834    -0.46340
C46         C  0.08091764  0.72540155  0.50302959     0.75240
O47         O  0.19616770  0.69248254  0.56716492    -0.58200
O48         O  0.10207723  0.76023412  0.49714426    -0.48290
O49         O  0.16249010  0.75152747  0.58041116    -0.54630
C50         C  0.22048239  0.80026021  0.50469460     0.85420
O51         O  0.17461623  0.72984918  0.43147027    -0.56520
O52         O  0.10449401  0.69236666  0.51051475    -0.59820
C53         C  0.32102071  0.72925723  0.23725884     0.00860
C54         C  0.30598776  0.73737311  0.28082500     0.00860
C55         C  0.29683229  0.78135712  0.78896501     0.00860
C56         C  0.29173480  0.78508410  0.74224582     0.00860
In57       In  0.82031484  0.61813627  0.00440415     1.36870
C58         C  0.83401378  0.63409567  0.09352895     0.77870
O59         O  0.79604078  0.68520387  0.00841596    -0.60570
O60         O  0.74753736  0.63537588  0.00023056    -0.51480
C61         C  0.84741800  0.64527351  0.92205266     0.70540
O62         O  0.87055600  0.65149478  0.95807433    -0.46340
C63         C  0.82364988  0.53266972  0.99952826     0.75240
O64         O  0.86216600  0.64557141  0.06319408    -0.58200
O65         O  0.78809142  0.55384659  0.99632657    -0.48290
O66         O  0.80323151  0.61046366  0.07803545    -0.54630
C67         C  0.75575013  0.67543906  0.00444933     0.85420
O68         O  0.81430673  0.62092203  0.92825721    -0.56520
O69         O  0.85841605  0.55536710  0.00442045    -0.59820
In70       In  0.66598414  0.77472257  0.00519996     1.36870
C71         C  0.67953833  0.79419996  0.09258183     0.77870
O72         O  0.60224953  0.81153761  0.00539414    -0.60570
O73         O  0.60105451  0.74295034  0.99452983    -0.51480
C74         C  0.69675153  0.80476249  0.92566060     0.70540
O75         O  0.70632500  0.82279923  0.96367055    -0.46340
C76         C  0.72230381  0.70938107  0.00481554     0.75240
O77         O  0.68767209  0.82102165  0.06052339    -0.58200
O78         O  0.68117392  0.70288111  0.00052952    -0.48290
O79         O  0.65994916  0.76002372  0.08003146    -0.54630
C80         C  0.57942407  0.77763627  0.99883277     0.85420
O81         O  0.66753488  0.77562557  0.92882930    -0.56520
O82         O  0.73361369  0.74836904  0.00949550    -0.59820
In83       In  0.80613475  0.89837646  0.49445211     1.36870
C84         C  0.80555634  0.88573380  0.58451376     0.77870
O85         O  0.82327306  0.82908534  0.49496582    -0.60570
O86         O  0.87590999  0.87392957  0.48209234    -0.51480
C87         C  0.76266980  0.87327885  0.42024419     0.70540
O88         O  0.74615436  0.86945518  0.46045332    -0.46340
C89         C  0.80371752  0.98335214  0.49090172     0.75240
O90         O  0.77155014  0.87781595  0.56010541    -0.58200
O91         O  0.83778677  0.96205596  0.47948852    -0.48290
O92         O  0.83660488  0.90464980  0.56335695    -0.54630
C93         C  0.86409239  0.83489377  0.48834127     0.85420
O94         O  0.79858031  0.89433303  0.41826164    -0.56520
O95         O  0.77036985  0.96100114  0.50268073    -0.59820
In96       In  0.94533676  0.72870085  0.50017253     1.36870
C97         C  0.92171543  0.71407120  0.58686048     0.77870
O98         O  0.00902885  0.69099199  0.50634556    -0.60570
O99         O  0.01119271  0.75961121  0.49656595    -0.51480
C100        C  0.91932292  0.70048762  0.41848013     0.70540
O101        O  0.90274211  0.68483406  0.45505234    -0.46340
C102        C  0.89440139  0.79813838  0.49052819     0.75240
O103        O  0.91665511  0.68545755  0.55577789    -0.58200
O104        O  0.93609326  0.80113556  0.48915699    -0.48290
O105        O  0.94334762  0.74700495  0.57439938    -0.54630
C106        C  0.03247206  0.72489189  0.50185811     0.85420
O107        O  0.95427446  0.72212891  0.42460528    -0.56520
O108        O  0.87970630  0.76039378  0.49628401    -0.59820
C109        C  0.79032077  0.75182462  0.28632968     0.00860
C110        C  0.78370594  0.74306045  0.24062588     0.00860
C111        C  0.82966008  0.78177940  0.73970419     0.00860
C112        C  0.81355575  0.76650483  0.78093003     0.00860
In113      In  0.31371817  0.11349220  0.47223692     1.36870
C114        C  0.33514669  0.14212480  0.55500814     0.77870
O115        O  0.29522098  0.18203229  0.46759205    -0.60570
O116        O  0.24258476  0.13596479  0.47452939    -0.51480
C117        C  0.33260673  0.12786376  0.38467535     0.70540
O118        O  0.36101602  0.13456013  0.41623584    -0.46340
C119        C  0.31527013  0.02903709  0.48212705     0.75240
O120        O  0.36147239  0.14678010  0.52098440    -0.58200
O121        O  0.27967645  0.05018251  0.47873872    -0.48290
O122        O  0.30263512  0.11750769  0.54720041    -0.54630
C123        C  0.25422810  0.17534164  0.47109552     0.85420
O124        O  0.29806991  0.10812693  0.39763533    -0.56520
O125        O  0.35061802  0.05112653  0.47941131    -0.59820
In126      In  0.17240793  0.28080505  0.46937742     1.36870
C127        C  0.18210585  0.29061130  0.37882680     0.77870
O128        O  0.23794697  0.24965810  0.46459091    -0.60570
O129        O  0.18253086  0.20856175  0.47745172    -0.51480
C130        C  0.21071933  0.31530042  0.54350433     0.70540
O131        O  0.21718947  0.33063168  0.50349983    -0.46340
C132        C  0.08609271  0.28580344  0.48397856     0.75240
O133        O  0.19247445  0.32074186  0.40669770    -0.58200
O134        O  0.10777012  0.25113305  0.48693687    -0.48290
O135        O  0.16301788  0.25878390  0.39743596    -0.54630
C136        C  0.22377875  0.21178645  0.47107431     0.85420
O137        O  0.18136074  0.28621020  0.54526409    -0.56520
O138        O  0.10871679  0.31911141  0.47393190    -0.59820
In139      In  0.29547851  0.39947748  0.97299268     1.36870
C140        C  0.27217838  0.36968098  0.05462376     0.77870
O141        O  0.31758854  0.33171308  0.96755597    -0.60570
O142        O  0.36751608  0.37990002  0.97803671    -0.51480
C143        C  0.27754132  0.38506481  0.88545958     0.70540
O144        O  0.24931892  0.37750023  0.91709472    -0.46340
C145        C  0.29125944  0.48408840  0.98088262     0.75240
O146        O  0.24700149  0.36433592  0.01995097    -0.58200
O147        O  0.32748630  0.46387598  0.97822875    -0.48290
O148        O  0.30362867  0.39589171  0.04806001    -0.54630
C149        C  0.35801055  0.34009427  0.97342267     0.85420
O150        O  0.31201898  0.40477952  0.89845233    -0.56520
O151        O  0.25663862  0.46088540  0.97933901    -0.59820
In152      In  0.44495404  0.23815261  0.97477179     1.36870
C153        C  0.43377630  0.22674223  0.88432074     0.77870
O154        O  0.37790520  0.26631397  0.96982095    -0.60570
O155        O  0.43126734  0.31021185  0.98092945    -0.51480
C156        C  0.41169880  0.20097372  0.04987347     0.70540
O157        O  0.40989550  0.18270960  0.01062343    -0.46340
C158        C  0.53119394  0.23545933  0.98907047     0.75240
O159        O  0.41816294  0.20024370  0.91350524    -0.58200
O160        O  0.50877163  0.26971199  0.99233405    -0.48290
O161        O  0.45937351  0.25476198  0.90157223    -0.54630
C162        C  0.39021051  0.30499310  0.97480620     0.85420
O163        O  0.43372771  0.23571218  0.05078995    -0.56520
O164        O  0.50944831  0.20176675  0.97839607    -0.59820
C165        C  0.28271681  0.22917193  0.23129380     0.00860
C166        C  0.28760870  0.23027987  0.18415413     0.00860
C167        C  0.32850293  0.28053283  0.73644602     0.00860
C168        C  0.32041886  0.27407843  0.69064029     0.00860
In169      In  0.66573453  0.24017776  0.00724718     1.36870
C170        C  0.67984091  0.21492795  0.09304338     0.77870
O171        O  0.73322367  0.26778439  0.01450314    -0.60570
O172        O  0.68063282  0.31233490  0.00418081    -0.51480
C173        C  0.69790527  0.21979480  0.92508258     0.70540
O174        O  0.70373825  0.19493931  0.95932249    -0.46340
C175        C  0.57908378  0.23590785  0.99653247     0.75240
O176        O  0.69016606  0.19134851  0.05875060    -0.58200
O177        O  0.59950534  0.27076681  0.00503361    -0.48290
O178        O  0.65814906  0.24844154  0.08317232    -0.54630
C179        C  0.72181544  0.30653469  0.00864359     0.85420
O180        O  0.67108235  0.25020785  0.93260192    -0.56520
O181        O  0.60296606  0.20238201  0.99438317    -0.59820
In182      In  0.81918671  0.39967792  0.00346183     1.36870
C183        C  0.82975714  0.38550371  0.09281553     0.77870
O184        O  0.85777576  0.46237312  0.00479904    -0.60570
O185        O  0.78775929  0.46396257  0.99421450    -0.51480
C186        C  0.84901522  0.37354339  0.92164758     0.70540
O187        O  0.87235331  0.37005739  0.95794816    -0.46340
C188        C  0.75516516  0.34097994  0.00624620     0.75240
O189        O  0.85832766  0.37223421  0.06375654    -0.58200
O190        O  0.74661769  0.38067173  0.99988848    -0.48290
O191        O  0.80115960  0.41072311  0.07624446    -0.54630
C192        C  0.82339661  0.48510780  0.99904214     0.85420
O193        O  0.81304133  0.39352569  0.92728606    -0.56520
O194        O  0.79564916  0.33208393  0.00995742    -0.59820
In195      In  0.95097456  0.28096231  0.49846839     1.36870
C196        C  0.93240694  0.30090052  0.58562865     0.77870
O197        O  0.88459337  0.25087303  0.50145168    -0.60570
O198        O  0.93931810  0.20848117  0.49238117    -0.51480
C199        C  0.92012718  0.30519506  0.41666391     0.70540
O200        O  0.91043032  0.32594026  0.45315634    -0.46340
C201        C  0.03800024  0.28577911  0.49059754     0.75240
O202        O  0.92424069  0.32676540  0.55277845    -0.58200
O203        O  0.01711299  0.25067561  0.49590347    -0.48290
O204        O  0.95457124  0.26808816  0.57414554    -0.54630
C205        C  0.89787285  0.21263968  0.49616599     0.85420
O206        O  0.94966204  0.27694812  0.42220082    -0.56520
O207        O  0.01436971  0.31957730  0.49051778    -0.59820
In208      In  0.80530162  0.11569068  0.49869915     1.36870
C209        C  0.79839839  0.13040840  0.58844535     0.77870
O210        O  0.76959771  0.05226121  0.50318012    -0.60570
O211        O  0.83794670  0.05272519  0.48356509    -0.51480
C212        C  0.76710547  0.14267129  0.42203523     0.70540
O213        O  0.74801539  0.14598488  0.46102584    -0.46340
C214        C  0.86625587  0.17683800  0.49534680     0.75240
O215        O  0.76645059  0.13789359  0.56120194    -0.58200
O216        O  0.87656479  0.13736982  0.49019925    -0.48290
O217        O  0.83015753  0.11011580  0.57028629    -0.54630
C218        C  0.80355824  0.03067713  0.49210960     0.85420
O219        O  0.80274479  0.12150597  0.42234025    -0.56520
O220        O  0.82560114  0.18416415  0.50066305    -0.59820
C221        C  0.78056617  0.27167302  0.23838370     0.00860
C222        C  0.79016922  0.26469562  0.28375223     0.00860
C223        C  0.81932793  0.25680386  0.77978956     0.00860
C224        C  0.82519425  0.24821049  0.73389572     0.00860
C225        C  0.84646300  0.17910780  0.69771472    -0.11980
C226        C  0.81155500  0.20586120  0.71216323     0.05030
C227        C  0.76892786  0.19759773  0.69356723    -0.07260
C228        C  0.76444908  0.16976860  0.65521171    -0.08010
C229        C  0.80129107  0.14884513  0.63589340    -0.02560
C230        C  0.84224705  0.15166572  0.65943326     0.04260
N231        N  0.88148450  0.13172645  0.64164694     0.66760
H232        H  0.87903181  0.18330736  0.71273571     0.15660
H233        H  0.73220135  0.16594434  0.63930346     0.15370
N234        N  0.72967758  0.21522582  0.71372526     0.74470
O235        O  0.90294090  0.15021083  0.60969299    -0.38980
O236        O  0.89974227  0.10196045  0.66445290    -0.38920
O237        O  0.70382916  0.23689146  0.68862473    -0.39630
O238        O  0.71383376  0.19663047  0.74893940    -0.39690
C239        C  0.73920276  0.20990593  0.38774646    -0.11980
C240        C  0.75377611  0.16739626  0.38065260     0.05030
C241        C  0.76805897  0.15472515  0.33598503    -0.07260
C242        C  0.77522652  0.18678376  0.30222416    -0.08010
C243        C  0.76717918  0.23064699  0.31186741    -0.02560
C244        C  0.74548474  0.24174659  0.35375894     0.04260
N245        N  0.73177821  0.28544581  0.36318380     0.66760
H246        H  0.72677354  0.21934775  0.42149827     0.15660
H247        H  0.79033942  0.17792861  0.26961311     0.15370
N248        N  0.77745422  0.11003269  0.32545436     0.74470
O249        O  0.73020408  0.29946834  0.40425270    -0.38980
O250        O  0.71601338  0.30835844  0.33121266    -0.38920
O251        O  0.75779009  0.08007806  0.34709442    -0.39630
O252        O  0.80177559  0.10024401  0.29141125    -0.39690
C253        C  0.90153831  0.26965544  0.70713923    -0.11980
C254        C  0.85546519  0.27547149  0.70448115     0.05030
C255        C  0.83853171  0.30080531  0.66799654    -0.07260
C256        C  0.86668880  0.31563958  0.63289107    -0.08010
C257        C  0.91138569  0.30393047  0.63187315    -0.02560
C258        C  0.92983429  0.28324992  0.67100078     0.04260
N259        N  0.97653496  0.27416653  0.67340479     0.66760
H260        H  0.91509294  0.25154021  0.73570182     0.15660
H261        H  0.85212078  0.33157501  0.60323487     0.15370
N262        N  0.79222060  0.30845109  0.66327011     0.74470
O263        O  0.99076141  0.24476457  0.69970817    -0.38980
O264        O  0.00410530  0.29788784  0.65233141    -0.38920
O265        O  0.77791258  0.34635465  0.66970084    -0.39630
O266        O  0.76954511  0.28247515  0.63920566    -0.39690
C267        C  0.90123096  0.27262416  0.34179206    -0.11980
C268        C  0.89471283  0.30724207  0.37261047     0.05030
C269        C  0.85783022  0.33480171  0.36566476    -0.07260
C270        C  0.82563587  0.32311388  0.33234415    -0.08010
C271        C  0.82960058  0.28472124  0.30643293    -0.02560
C272        C  0.86886316  0.26045040  0.31006709     0.04260
N273        N  0.87457572  0.22062749  0.28534054     0.66760
H274        H  0.92966125  0.25159046  0.34546629     0.15660
H275        H  0.79627547  0.34274262  0.32840174     0.15370
N276        N  0.85196610  0.37361262  0.39261408     0.74470
O277        O  0.87821811  0.18576953  0.30773347    -0.38980
O278        O  0.88780566  0.22172879  0.24395366    -0.38920
O279        O  0.88509040  0.39642134  0.40370299    -0.39630
O280        O  0.81361938  0.38832241  0.39995312    -0.39690
C281        C  0.83258135  0.33439778  0.79966749    -0.11980
C282        C  0.84491245  0.29098562  0.80514910     0.05030
C283        C  0.87160948  0.27955890  0.84349131    -0.07260
C284        C  0.87816793  0.30998611  0.87923913    -0.08010
C285        C  0.85900621  0.35123156  0.87725649    -0.02560
C286        C  0.83932811  0.36485159  0.83531525     0.04260
N287        N  0.82391889  0.40859616  0.82956162     0.66760
H288        H  0.81432517  0.34373806  0.76914168     0.15660
H289        H  0.89468329  0.30004503  0.91068177     0.15370
N290        N  0.88970265  0.23660664  0.84798436     0.74470
O291        O  0.79329931  0.41688181  0.80129845    -0.38980
O292        O  0.84358810  0.43963552  0.84942911    -0.38920
O293        O  0.89766691  0.21391040  0.81254344    -0.39630
O294        O  0.90140072  0.22254558  0.88707334    -0.39690
C295        C  0.77991677  0.36691046  0.15655179    -0.11980
C296        C  0.82359513  0.36726629  0.14000136     0.05030
C297        C  0.85596920  0.34324256  0.16417048    -0.07260
C298        C  0.84207149  0.31487250  0.19988701    -0.08010
C299        C  0.79705350  0.31046910  0.21201707    -0.02560
C300        C  0.76629208  0.33899209  0.19164348     0.04260
N301        N  0.72045106  0.33888035  0.20461606     0.66760
H302        H  0.75484869  0.38633055  0.13975716     0.15660
H303        H  0.86621041  0.29455820  0.21646285     0.15370
N304        N  0.90237919  0.34726436  0.15320924     0.74470
O305        O  0.69083431  0.34063092  0.17390192    -0.38980
O306        O  0.70974762  0.34423435  0.24642288    -0.38920
O307        O  0.91736003  0.38192480  0.13600148    -0.39630
O308        O  0.92945273  0.31893559  0.16670825    -0.39690
C309        C  0.71387840  0.25148566  0.84928402    -0.11980
C310        C  0.72349965  0.21862929  0.88105966     0.05030
C311        C  0.76121470  0.19244495  0.87305116    -0.07260
C312        C  0.78909942  0.20151098  0.83500577    -0.08010
C313        C  0.78200685  0.23802824  0.80701800    -0.02560
C314        C  0.74336433  0.26297762  0.81423222     0.04260
N315        N  0.73461570  0.30172570  0.78838214     0.66760
H316        H  0.68464431  0.27128426  0.85395632     0.15660
H317        H  0.81878248  0.18246849  0.83018684     0.15370
N318        N  0.77414795  0.15939305  0.90492963     0.74470
O319        O  0.71591348  0.33358865  0.80761542    -0.38980
O320        O  0.74143699  0.30286757  0.74541580    -0.38920
O321        O  0.78250063  0.12185849  0.88992023    -0.39630
O322        O  0.78765024  0.17003021  0.94469314    -0.39690
C323        C  0.70557332  0.24362786  0.21515474    -0.11980
C324        C  0.75184274  0.24116165  0.21158202     0.05030
C325        C  0.77042768  0.21507769  0.17646169    -0.07260
C326        C  0.74353407  0.19850606  0.14137964    -0.08010
C327        C  0.69858275  0.20911669  0.13967975    -0.02560
C328        C  0.67839874  0.22823599  0.17900786     0.04260
N329        N  0.63116833  0.23454085  0.18112575     0.66760
H330        H  0.69100063  0.26094092  0.24398948     0.15660
H331        H  0.75921182  0.18270098  0.11209001     0.15370
N332        N  0.81701982  0.20775851  0.17381306     0.74470
O333        O  0.60551979  0.21105439  0.15730260    -0.38980
O334        O  0.61460657  0.26109147  0.20956939    -0.38920
O335        O  0.83184843  0.17149989  0.18637761    -0.39470
O336        O  0.84021830  0.23100166  0.14722344    -0.39690
C337        C  0.34060273  0.17655894  0.08169259    -0.11980
C338        C  0.38485534  0.18739215  0.09017653     0.05030
C339        C  0.39792409  0.19810041  0.13577849    -0.07260
C340        C  0.36504720  0.20517751  0.16962069    -0.08010
C341        C  0.31975835  0.20169726  0.15873251    -0.02560
C342        C  0.30794819  0.18376944  0.11531664     0.04260
N343        N  0.26258862  0.17684984  0.10307268     0.66760
H344        H  0.33046383  0.16734108  0.04706334     0.15660
H345        H  0.37470402  0.21847906  0.20277086     0.15370
N346        N  0.44391864  0.20469907  0.14713647     0.74470
O347        O  0.24770802  0.19261251  0.06598839    -0.38980
O348        O  0.24069749  0.14766109  0.12340854    -0.38920
O349        O  0.47383276  0.18588898  0.12410179    -0.39630
O350        O  0.45474544  0.22604951  0.18271871    -0.39690
C351        C  0.36069408  0.21687373  0.77840907    -0.11980
C352        C  0.36597926  0.25899606  0.76086845     0.05030
C353        C  0.40240791  0.28425176  0.77596361    -0.07260
C354        C  0.42848144  0.26912727  0.81248859    -0.08010
C355        C  0.41840011  0.23028335  0.83553457    -0.02560
C356        C  0.38626970  0.20218815  0.81596075     0.04260
N357        N  0.37794047  0.15982695  0.83474069     0.66760
H358        H  0.33464883  0.19634707  0.76489056     0.15660
H359        H  0.45449265  0.28998720  0.82570008     0.15370
N360        N  0.41176236  0.32635994  0.75660953     0.74470
O361        O  0.33978774  0.14311540  0.83213550    -0.38980
O362        O  0.40972608  0.13683052  0.84854887    -0.38920
O363        O  0.43186605  0.35469919  0.78024551    -0.39630
O364        O  0.40342719  0.33429148  0.71470365    -0.39690
C365        C  0.23322924  0.31590730  0.10584785    -0.11980
C366        C  0.27046045  0.34208092  0.09662189     0.05030
C367        C  0.30990520  0.33427096  0.12129289    -0.07260
C368        C  0.31285277  0.29813109  0.14947550    -0.08010
C369        C  0.27666205  0.27075271  0.15803317    -0.02560
C370        C  0.23524762  0.28063189  0.13712656     0.04260
N371        N  0.19582893  0.25505215  0.14492897     0.66760
H372        H  0.20302758  0.32172791  0.08674029     0.15660
H373        H  0.34491311  0.29071447  0.16403600     0.15370
N374        N  0.34881215  0.36050713  0.11539688     0.74470
O375        O  0.15845237  0.26921129  0.13280378    -0.38980
O376        O  0.19776106  0.21795696  0.16281506    -0.38920
O377        O  0.34851051  0.39955128  0.12850102    -0.39630
O378        O  0.38515120  0.34307032  0.10454211    -0.39690
C379        C  0.30999335  0.35530382  0.76373202    -0.11980
C380        C  0.30211427  0.31050375  0.76599520     0.05030
C381        C  0.27622782  0.29374455  0.80296673    -0.07260
C382        C  0.26186924  0.32170973  0.83802916    -0.08010
C383        C  0.27512662  0.36513170  0.83910292    -0.02560
C384        C  0.29765734  0.38288354  0.80047169     0.04260
N385        N  0.31008577  0.42798111  0.79921154     0.66760
H386        H  0.32859507  0.36831915  0.73486157     0.15660
H387        H  0.24430248  0.30823015  0.86745124     0.15370
N388        N  0.26612122  0.24824033  0.80694718     0.74470
O389        O  0.34218916  0.44044641  0.77443932    -0.38980
O390        O  0.28729759  0.45597554  0.82039465    -0.38920
O391        O  0.25820447  0.22568857  0.77147229    -0.39630
O392        O  0.26106603  0.23121101  0.84631033    -0.39690
C393        C  0.21877924  0.31614263  0.62800134    -0.11980
C394        C  0.23784895  0.32544052  0.58491868     0.05030
C395        C  0.28436071  0.33037757  0.58215856    -0.07260
C396        C  0.31037420  0.31902013  0.62060611    -0.08010
C397        C  0.29135217  0.30250855  0.66147841    -0.02560
C398        C  0.24464941  0.30409309  0.66591932     0.04260
N399        N  0.22195412  0.28961579  0.70637616     0.66760
H400        H  0.18306404  0.31328730  0.63092191     0.15660
H401        H  0.34607148  0.31969441  0.61719614     0.15370
N402        N  0.30589867  0.34250109  0.53969627     0.74470
O403        O  0.20792394  0.31795051  0.73430161    -0.38980
O404        O  0.20196394  0.25367628  0.70460805    -0.38920
O405        O  0.29247003  0.37492921  0.51731457    -0.39630
O406        O  0.34203664  0.32503541  0.52814496    -0.39690
C407        C  0.23475773  0.31146383  0.31641547    -0.11980
C408        C  0.19665655  0.28855396  0.32978617     0.05030
C409        C  0.18104109  0.25493494  0.30091462    -0.07260
C410        C  0.20870477  0.23911314  0.26587797    -0.08010
C411        C  0.25027985  0.25765066  0.25644831    -0.02560
C412        C  0.26174401  0.29710563  0.27946818     0.04260
N413        N  0.30031338  0.32263452  0.26766505     0.66760
H414        H  0.24593175  0.33831616  0.33766140     0.15660
H415        H  0.19844677  0.21031037  0.24774097     0.15370
N416        N  0.13859764  0.23474093  0.30877954     0.74470
O417        O  0.30250612  0.36195724  0.27967054    -0.38980
O418        O  0.33222106  0.30687941  0.24524114    -0.38920
O419        O  0.10622522  0.25708445  0.32269349    -0.39630
O420        O  0.13213098  0.19562461  0.29769559    -0.39690
C421        C  0.30075381  0.20128784  0.66405279    -0.11980
C422        C  0.33383614  0.23291242  0.66746018     0.05030
C423        C  0.37196092  0.22912194  0.63927131    -0.07260
C424        C  0.37367790  0.19669630  0.60497701    -0.08010
C425        C  0.33809499  0.16786604  0.59840342    -0.02560
C426        C  0.30197132  0.16945643  0.62978492     0.04260
N427        N  0.26333729  0.14305143  0.62385722     0.66760
H428        H  0.27113684  0.20404205  0.68499193     0.15660
H429        H  0.40199146  0.19551344  0.58189099     0.15370
N430        N  0.40863759  0.25818465  0.64422520     0.74470
O431        O  0.25398723  0.11477236  0.65381559    -0.38980
O432        O  0.23389197  0.15476381  0.59563747    -0.38920
O433        O  0.43282640  0.25506897  0.67955818    -0.39630
O434        O  0.42357870  0.27768093  0.60911697    -0.39690
C435        C  0.31044408  0.12834891  0.30193111    -0.11980
C436        C  0.33488772  0.14740743  0.33801536     0.05030
C437        C  0.35080495  0.19000336  0.33224501    -0.07260
C438        C  0.33630891  0.21442157  0.29463290    -0.08010
C439        C  0.30667334  0.19754017  0.26167708    -0.02560
C440        C  0.29651719  0.15271114  0.26353339     0.04260
N441        N  0.27055755  0.13161349  0.22861233     0.66760
H442        H  0.29886540  0.09522280  0.30547877     0.15660
H443        H  0.34613851  0.24795167  0.29362378     0.15370
N444        N  0.37717729  0.21101881  0.36684029     0.74470
O445        O  0.28189353  0.09468900  0.21402073    -0.38980
O446        O  0.23265853  0.14561494  0.21866648    -0.38920
O447        O  0.41483526  0.22571101  0.35594476    -0.39630
O448        O  0.35918209  0.22384027  0.40386764    -0.39690
C449        C  0.92291597  0.72746153  0.67133007    -0.11980
C450        C  0.89912504  0.71366352  0.63222581     0.05030
C451        C  0.85249018  0.71480646  0.63339629    -0.07260
C452        C  0.83131589  0.73540334  0.67045872    -0.08010
C453        C  0.85491012  0.75195491  0.70840410    -0.02560
C454        C  0.90153495  0.74614145  0.70994652     0.04260
N455        N  0.92822393  0.76134988  0.74800222     0.66760
H456        H  0.95879708  0.72718709  0.67001698     0.15660
H457        H  0.79582583  0.74000458  0.66886417     0.15370
N458        N  0.82641795  0.69922928  0.59522237     0.74470
O459        O  0.96448106  0.74298977  0.75695626    -0.38980
O460        O  0.91823779  0.79526274  0.77004367    -0.38920
O461        O  0.83371857  0.66213679  0.57844752    -0.39630
O462        O  0.79198778  0.71925735  0.58309942    -0.39690
C463        C  0.89594414  0.74660629  0.35602964    -0.11980
C464        C  0.89427162  0.70490126  0.37477670     0.05030
C465        C  0.86176988  0.67533054  0.35844704    -0.07260
C466        C  0.82974879  0.69020092  0.32637750    -0.08010
C467        C  0.82903621  0.73375535  0.31191979    -0.02560
C468        C  0.86318172  0.76176478  0.32686978     0.04260
N469        N  0.86313742  0.80711201  0.31703911     0.66760
H470        H  0.92014571  0.76998309  0.36836769     0.15660
H471        H  0.80392822  0.66848202  0.31452298     0.15370
N472        N  0.86090093  0.63085785  0.37358176     0.74470
O473        O  0.85420616  0.83302418  0.34960788    -0.38980
O474        O  0.88648562  0.82069837  0.28386025    -0.38920
O475        O  0.89475073  0.61393883  0.39147852    -0.39630
O476        O  0.82803454  0.60689872  0.36453464    -0.39690
C477        C  0.85673547  0.84478553  0.69564212    -0.11980
C478        C  0.82003005  0.82564271  0.71788958     0.05030
C479        C  0.77742999  0.83845587  0.70199458    -0.07260
C480        C  0.77335326  0.85874709  0.65864852    -0.08010
C481        C  0.81067767  0.87056296  0.63280155    -0.02560
C482        C  0.85289010  0.86554412  0.65296954     0.04260
N483        N  0.89276958  0.87594670  0.62832452     0.66760
H484        H  0.88982172  0.83787379  0.70741540     0.15660
H485        H  0.74071817  0.86664471  0.64570069     0.15370
N486        N  0.74002118  0.84057319  0.73230821     0.74470
O487        O  0.92119130  0.90046343  0.64690387    -0.38980
O488        O  0.90388585  0.85328203  0.59379005    -0.38920
O489        O  0.74236076  0.86540737  0.76701261    -0.39630
O490        O  0.70215784  0.83088104  0.71688943    -0.39690
C491        C  0.73539629  0.80502277  0.38848194    -0.11980
C492        C  0.74676717  0.84823893  0.37994793     0.05030
C493        C  0.75779286  0.86090512  0.33432407    -0.07260
C494        C  0.76600365  0.82854165  0.30091200    -0.08010
C495        C  0.76323754  0.78439704  0.31253759    -0.02560
C496        C  0.74385009  0.77283039  0.35543056     0.04260
N497        N  0.73557180  0.72834545  0.36708019     0.66760
H498        H  0.72512588  0.79544918  0.42294996     0.15660
H499        H  0.77933697  0.83779691  0.26763505     0.15370
N500        N  0.76427575  0.90590100  0.32281745     0.74470
O501        O  0.73934085  0.71555293  0.40835180    -0.38980
O502        O  0.71842802  0.70331588  0.33757823    -0.38920
O503        O  0.78537773  0.91652357  0.28677289    -0.39630
O504        O  0.74572334  0.93516646  0.34645434    -0.39690
C505        C  0.70782137  0.76314228  0.21394313    -0.11980
C506        C  0.75377092  0.76976771  0.21144509     0.05030
C507        C  0.77142643  0.79543428  0.17524623    -0.07260
C508        C  0.74348961  0.81013862  0.14029243    -0.08010
C509        C  0.69894576  0.79785141  0.13907055    -0.02560
C510        C  0.67994978  0.77662247  0.17772756     0.04260
N511        N  0.63325341  0.76687549  0.17944466     0.66760
H512        H  0.69426019  0.74454889  0.24241951     0.15660
H513        H  0.75792484  0.82693819  0.11096171     0.15370
N514        N  0.81802789  0.80418417  0.17150453     0.74470
O515        O  0.61856493  0.73811184  0.20649365    -0.38980
O516        O  0.60604509  0.78938263  0.15682819    -0.38920
O517        O  0.83982340  0.81506159  0.20678169    -0.39630
O518        O  0.83653412  0.80579333  0.13229246    -0.39690
C519        C  0.79305981  0.81771429  0.84362734    -0.11980
C520        C  0.77926122  0.78918000  0.80851207     0.05030
C521        C  0.73442519  0.77534496  0.80726541    -0.07260
C522        C  0.70604760  0.78775424  0.84329199    -0.08010
C523        C  0.72135894  0.81129861  0.88165720    -0.02560
C524        C  0.76452551  0.82933769  0.88015105     0.04260
N525        N  0.78071563  0.85716792  0.91634037     0.66760
H526        H  0.82706828  0.82905557  0.84391660     0.15660
H527        H  0.67234314  0.77558838  0.84338764     0.15370
N528        N  0.71723639  0.74796146  0.77081881     0.74470
O529        O  0.82083233  0.85552085  0.92839972    -0.38980
O530        O  0.75695705  0.88778310  0.93119091    -0.38920
O531        O  0.73534066  0.74700886  0.73145600    -0.39630
O532        O  0.68115118  0.72777539  0.77633706    -0.39690
C533        C  0.79178104  0.64381129  0.16552245    -0.11980
C534        C  0.83159714  0.65151208  0.14172161     0.05030
C535        C  0.86151239  0.68262312  0.16010328    -0.07260
C536        C  0.84748857  0.70942923  0.19717595    -0.08010
C537        C  0.80463057  0.70559796  0.21597465    -0.02560
C538        C  0.77772523  0.67069594  0.20146095     0.04260
N539        N  0.73436001  0.66402584  0.22034636     0.66760
H540        H  0.76905622  0.61897681  0.15349622     0.15660
H541        H  0.86903946  0.73505540  0.20949139     0.15370
N542        N  0.90524583  0.68810583  0.14113796     0.74470
O543        O  0.70181246  0.65829339  0.19364834    -0.38980
O544        O  0.73013820  0.65516376  0.26265848    -0.38920
O545        O  0.92684674  0.65553468  0.12747425    -0.39630
O546        O  0.92481790  0.72422127  0.14422269    -0.39690
C547        C  0.82421999  0.65774482  0.84131231    -0.11980
C548        C  0.85329375  0.66870992  0.87738356     0.05030
C549        C  0.87750639  0.70785385  0.87399351    -0.07260
C550        C  0.86640428  0.73770813  0.83915981    -0.08010
C551        C  0.83379232  0.72861797  0.80568528    -0.02560
C552        C  0.81404740  0.68696063  0.80584324     0.04260
N553        N  0.78137422  0.67444199  0.77254372     0.66760
H554        H  0.80644876  0.62718134  0.84251013     0.15660
H555        H  0.88130421  0.76957800  0.84029778     0.15370
N556        N  0.91150961  0.71882663  0.90674935     0.74470
O557        O  0.74670959  0.65503814  0.78577864    -0.38980
O558        O  0.79167678  0.67308759  0.73028974    -0.38920
O559        O  0.94000995  0.69091416  0.91778255    -0.39630
O560        O  0.91762015  0.75779147  0.91861528    -0.39690
C561        C  0.29858140  0.69164547  0.35015330    -0.11980
C562        C  0.27874405  0.70605795  0.30896432     0.05030
C563        C  0.23203449  0.70319487  0.30568089    -0.07260
C564        C  0.20684513  0.69581720  0.34569590    -0.08010
C565        C  0.22707516  0.68897753  0.38857146    -0.02560
C566        C  0.27344985  0.68333888  0.39006071     0.04260
N567        N  0.29629108  0.67491169  0.43253161     0.66760
H568        H  0.33435052  0.69244280  0.35323049     0.15660
H569        H  0.17104318  0.69754917  0.34367378     0.15370
N570        N  0.20937613  0.70556559  0.26246545     0.74470
O571        O  0.32566604  0.64595424  0.43348211    -0.38980
O572        O  0.29439832  0.70197178  0.46528378    -0.38920
O573        O  0.20729601  0.67145713  0.23838449    -0.39630
O574        O  0.17929000  0.73341973  0.25756162    -0.39690
C575        C  0.19065240  0.76039450  0.67043733    -0.11980
C576        C  0.20623473  0.72614777  0.64294459     0.05030
C577        C  0.24545016  0.70474868  0.65645842    -0.07260
C578        C  0.26998613  0.72096202  0.69401734    -0.08010
C579        C  0.25754665  0.75928266  0.71679012    -0.02560
C580        C  0.21623489  0.77798021  0.70606380     0.04260
N581        N  0.20131703  0.81688675  0.72824283     0.66760
H582        H  0.15996491  0.77641769  0.66151452     0.15660
H583        H  0.30135881  0.70613881  0.70197684     0.15370
N584        N  0.26362592  0.66988104  0.62982937     0.74470
O585        O  0.18294016  0.84622196  0.70483971    -0.38980
O586        O  0.19958762  0.81883205  0.77172947    -0.38920
O587        O  0.28126481  0.67778273  0.59108357    -0.39630
O588        O  0.27194170  0.63439755  0.64951823    -0.39690
C589        C  0.29536314  0.84013858  0.35023691    -0.11980
C590        C  0.33451451  0.84003477  0.37637233     0.05030
C591        C  0.36801600  0.80992938  0.36455988    -0.07260
C592        C  0.36032912  0.77968053  0.32874474    -0.08010
C593        C  0.31907950  0.77742131  0.30632240    -0.02560
C594        C  0.28651787  0.80856494  0.31695623     0.04260
N595        N  0.24326067  0.80730532  0.29627453     0.66760
H596        H  0.26940883  0.86319003  0.35800437     0.15660
H597        H  0.38508062  0.75524058  0.32142439     0.15370
N598        N  0.40870482  0.80775290  0.38975140     0.74470
O599        O  0.20960837  0.81820097  0.31951991    -0.38980
O600        O  0.23886464  0.79932213  0.25373474    -0.38920
O601        O  0.40858725  0.79300207  0.43044823    -0.39630
O602        O  0.44495659  0.81018479  0.36804988    -0.39690
C603        C  0.35664875  0.83182950  0.64214998    -0.11980
C604        C  0.33559203  0.87177716  0.63724796     0.05030
C605        C  0.30892552  0.88753963  0.67402395    -0.07260
C606        C  0.29963057  0.86022813  0.71192108    -0.08010
C607        C  0.31576715  0.81768206  0.71334379    -0.02560
C608        C  0.34634845  0.80417761  0.67892205     0.04260
N609        N  0.36426897  0.76121019  0.67817539     0.66760
H610        H  0.37752530  0.81974742  0.61443647     0.15660
H611        H  0.27686637  0.87091486  0.73860052     0.15370
N612        N  0.28942666  0.92999881  0.67220109     0.74470
O613        O  0.36659145  0.74049114  0.64050359    -0.38980
O614        O  0.38450268  0.74691217  0.71294018    -0.38920
O615        O  0.25438009  0.93812607  0.69447146    -0.39630
O616        O  0.30913852  0.96055121  0.65159849    -0.39690
C617        C  0.39773209  0.73245996  0.20723052    -0.11980
C618        C  0.35767536  0.75436617  0.21461900     0.05030
C619        C  0.35007477  0.79294660  0.18963547    -0.07260
C620        C  0.37863197  0.80467594  0.15344654    -0.08010
C621        C  0.41472594  0.77861425  0.14139137    -0.02560
C622        C  0.42663395  0.74422665  0.17114523     0.04260
N623        N  0.46632644  0.71951808  0.16352129     0.66760
H624        H  0.40511611  0.70409652  0.22765859     0.15660
H625        H  0.36991878  0.83205868  0.13194917     0.15370
N626        N  0.31257391  0.81962773  0.19856533     0.74470
O627        O  0.50136861  0.73808155  0.15000630    -0.38980
O628        O  0.46768815  0.67992185  0.17428054    -0.38920
O629        O  0.31621034  0.84918096  0.22858077    -0.39630
O630        O  0.28342722  0.82337341  0.16762948    -0.39690
C631        C  0.37221478  0.81149049  0.80750433    -0.11980
C632        C  0.32660105  0.81035111  0.81712708     0.05030
C633        C  0.31197955  0.82753421  0.85999423    -0.07260
C634        C  0.34275463  0.83546358  0.89527031    -0.08010
C635        C  0.38788357  0.82775917  0.88812741    -0.02560
C636        C  0.40328944  0.82018727  0.84260552     0.04260
N637        N  0.44999732  0.81888243  0.83234654     0.66760
H638        H  0.38398178  0.80177015  0.77389656     0.15660
H639        H  0.33090273  0.84386073  0.92956012     0.15370
N640        N  0.26614345  0.83654392  0.86838149     0.74470
O641        O  0.46386193  0.80092897  0.79578498    -0.38980
O642        O  0.47718140  0.83948436  0.85730480    -0.38920
O643        O  0.24468963  0.85815913  0.83911322    -0.39630
O644        O  0.24952683  0.83033497  0.90798265    -0.39690
C645        C  0.30205007  0.63016119  0.16180029    -0.11980
C646        C  0.27240828  0.64741243  0.12928718     0.05030
C647        C  0.25246826  0.68779778  0.13858952    -0.07260
C648        C  0.26749350  0.71237419  0.17619631    -0.08010
C649        C  0.29960392  0.69663769  0.20677490    -0.02560
C650        C  0.31611742  0.65412520  0.20059786     0.04260
N651        N  0.34909115  0.63592529  0.23083246     0.66760
H652        H  0.31682352  0.59884078  0.15498879     0.15660
H653        H  0.25434057  0.74458239  0.18138111     0.15370
N654        N  0.21918617  0.70557926  0.10883655     0.74470
O655        O  0.37299620  0.60490819  0.21719290    -0.38980
O656        O  0.35286742  0.64873192  0.27211762    -0.38920
O657        O  0.18559482  0.68314736  0.09845381    -0.39630
O658        O  0.21929687  0.74556977  0.09974196    -0.39690
C659        C  0.29120973  0.66761161  0.83858605    -0.11980
C660        C  0.25690348  0.67147104  0.87108873     0.05030
C661        C  0.22906876  0.70818183  0.86899230    -0.07260
C662        C  0.24078148  0.74271028  0.83942181    -0.08010
C663        C  0.27990748  0.74157647  0.81293055    -0.02560
C664        C  0.30435384  0.70268262  0.81153861     0.04260
N665        N  0.34580436  0.69957435  0.78776392     0.66760
H666        H  0.31243707  0.63936350  0.83881992     0.15660
H667        H  0.22015525  0.77115691  0.83870021     0.15370
N668        N  0.19002839  0.71146016  0.89737228     0.74470
O669        O  0.37919369  0.71794973  0.80525470    -0.38980
O670        O  0.35193409  0.66835072  0.76020162    -0.38920
O671        O  0.17618926  0.74806518  0.91043665    -0.39630
O672        O  0.16636251  0.67837764  0.90480740    -0.39690
loop_ 
_geom_bond_atom_site_label_1 
_geom_bond_atom_site_label_2 
_geom_bond_distance 
_geom_bond_site_symmetry_2 
_ccdc_geom_bond_type 
In1           O3   2.204       .  S
In1           O4   2.265       .  S
In1          O12   2.210   1_556  S
In1           O6   2.246   1_556  S
In1           O8   2.260       .  S
In1           O9   2.211       .  S
In1          O10   2.198       .  S
In1          O13   2.243       .  S
C2            O8   1.266       .  A
C2           O10   1.261       .  A
C2          C660   1.485       .  S
O3           C11   1.257       .  A
O4           C11   1.265       .  A
C5           O12   1.261       .  A
C5            O6   1.267       .  A
C5          C646   1.481       .  S
C7            O9   1.263       .  A
C7           O13   1.266       .  A
C7          C145   1.460       .  S
C11          C24   1.457       .  S
In14         O16   2.204       .  S
In14         O17   2.262   1_554  S
In14         O25   2.225   1_554  S
In14         O19   2.252   1_554  S
In14         O21   2.258       .  S
In14         O22   2.214   1_554  S
In14         O23   2.214       .  S
In14         O26   2.240       .  S
C15          O21   1.268       .  A
C15          O23   1.259       .  A
C15         C621   1.482       .  S
O16          C24   1.258   1_554  A
O17          C24   1.264       .  A
C18          O25   1.261       .  A
C18          O19   1.266       .  A
C18         C635   1.477       .  S
C20          O22   1.262       .  A
C20          O26   1.264   1_556  A
C20          C80   1.457       .  S
In27         O29   2.200       .  S
In27         O30   2.262       .  S
In27         O38   2.218       .  S
In27         O32   2.244       .  S
In27         O34   2.274       .  S
In27         O35   2.214       .  S
In27         O36   2.185       .  S
In27         O39   2.239       .  S
C28          O34   1.269       .  A
C28          O36   1.262       .  A
C28         C590   1.488       .  S
O29          C37   1.260       .  A
O30          C37   1.268       .  A
C31          O38   1.262       .  A
C31          O32   1.271       .  A
C31         C604   1.480       .  S
C33          O35   1.264       .  A
C33          O39   1.266       .  A
C33         C119   1.460   1_565  S
C37          C50   1.459       .  S
In40         O42   2.209       .  S
In40         O43   2.271       .  S
In40         O51   2.213       .  S
In40         O45   2.262       .  S
In40         O47   2.265       .  S
In40         O48   2.210       .  S
In40         O49   2.194       .  S
In40         O52   2.264       .  S
C41          O47   1.266       .  A
C41          O49   1.260       .  A
C41         C576   1.483       .  S
O42          C50   1.257       .  A
O43          C50   1.263       .  A
C44          O51   1.260       .  A
C44          O45   1.265       .  A
C44         C565   1.475       .  S
C46          O48   1.260       .  A
C46          O52   1.266       .  A
C46         C106   1.464       .  S
C53          C54   1.360       .  D
C53         C618   1.499       .  S
C53         C649   1.484       .  S
C54         C562   1.505       .  S
C54         C593   1.490       .  S
C55          C56   1.364       .  D
C55         C632   1.505       .  S
C55         C663   1.499       .  S
C56         C579   1.495       .  S
C56         C607   1.494       .  S
In57         O59   2.202       .  S
In57         O60   2.267       .  S
In57         O68   2.210   1_554  S
In57         O62   2.267   1_554  S
In57         O64   2.279       .  S
In57         O65   2.219   1_554  S
In57         O66   2.201       .  S
In57         O69   2.258       .  S
C58          O64   1.269       .  A
C58          O66   1.262       .  A
C58         C534   1.493       .  S
O59          C67   1.258       .  A
O60          C67   1.266       .  A
C61          O68   1.261       .  A
C61          O62   1.269       .  A
C61         C548   1.491       .  S
C63          O65   1.263       .  A
C63          O69   1.268   1_556  A
C63         C192   1.468       .  S
C67          C76   1.458       .  S
In70         O72   2.239       .  S
In70         O73   2.211   1_554  S
In70         O81   2.207   1_554  S
In70         O75   2.261   1_554  S
In70         O77   2.239       .  S
In70         O78   2.270       .  S
In70         O79   2.217       .  S
In70         O82   2.206       .  S
C71          O77   1.267       .  A
C71          O79   1.260       .  A
C71         C509   1.471       .  S
O72          C80   1.265   1_554  A
O73          C80   1.262       .  A
C74          O81   1.261       .  A
C74          O75   1.264       .  A
C74         C523   1.485       .  S
C76          O78   1.264       .  A
C76          O82   1.257       .  A
In83         O85   2.203       .  S
In83         O86   2.268       .  S
In83         O94   2.217       .  S
In83         O88   2.244       .  S
In83         O90   2.254       .  S
In83         O91   2.225       .  S
In83         O92   2.203       .  S
In83         O95   2.230       .  S
C84          O90   1.270       .  A
C84          O92   1.260       .  A
C84         C481   1.482       .  S
O85          C93   1.259       .  A
O86          C93   1.269       .  A
C87          O94   1.263       .  A
C87          O88   1.269       .  A
C87         C492   1.476       .  S
C89          O91   1.266       .  A
C89          O95   1.265       .  A
C89         C218   1.461   1_565  S
C93         C102   1.462       .  S
In96         O98   2.260   1_655  S
In96         O99   2.205   1_655  S
In96        O107   2.208       .  S
In96        O101   2.275       .  S
In96        O103   2.260       .  S
In96        O104   2.278       .  S
In96        O105   2.217       .  S
In96        O108   2.217       .  S
C97         O103   1.267       .  A
C97         O105   1.259       .  A
C97         C450   1.476       .  S
O98         C106   1.268       .  A
O99         C106   1.262       .  A
C100        O107   1.260       .  A
C100        O101   1.264       .  A
C100        C464   1.481       .  S
C102        O104   1.263       .  A
C102        O108   1.256       .  A
C109        C110   1.362       .  D
C109        C467   1.496       .  S
C109        C495   1.501       .  S
C110        C506   1.491       .  S
C110        C537   1.498       .  S
C111        C112   1.369       .  D
C111        C453   1.498       .  S
C111        C478   1.524       .  S
C112        C520   1.482       .  S
C112        C551   1.505       .  S
In113       O115   2.195       .  S
In113       O116   2.261       .  S
In113       O124   2.214       .  S
In113       O118   2.251       .  S
In113       O120   2.261       .  S
In113       O121   2.213       .  S
In113       O122   2.194       .  S
In113       O125   2.239       .  S
C114        O120   1.271       .  A
C114        O122   1.260       .  A
C114        C425   1.485       .  S
O115        C123   1.258       .  A
O116        C123   1.268       .  A
C117        O124   1.262       .  A
C117        O118   1.270       .  A
C117        C436   1.480       .  S
C119        O121   1.264       .  A
C119        O125   1.267       .  A
C123        C136   1.456       .  S
In126       O128   2.208       .  S
In126       O129   2.265       .  S
In126       O137   2.216       .  S
In126       O131   2.269       .  S
In126       O133   2.273       .  S
In126       O134   2.211       .  S
In126       O135   2.204       .  S
In126       O138   2.265       .  S
C127        O133   1.267       .  A
C127        O135   1.258       .  A
C127        C408   1.484       .  S
O128        C136   1.258       .  A
O129        C136   1.262       .  A
C130        O137   1.260       .  A
C130        O131   1.265       .  A
C130        C394   1.484       .  S
C132        O134   1.260       .  A
C132        O138   1.266       .  A
C132        C201   1.464       .  S
In139       O141   2.203       .  S
In139       O142   2.266       .  S
In139       O150   2.216       .  S
In139       O144   2.239       .  S
In139       O146   2.268   1_556  S
In139       O147   2.212       .  S
In139       O148   2.187   1_556  S
In139       O151   2.240       .  S
C140        O146   1.269       .  A
C140        O148   1.259       .  A
C140        C366   1.485       .  S
O141        C149   1.259       .  A
O142        C149   1.267       .  A
C143        O150   1.261       .  A
C143        O144   1.269       .  A
C143        C383   1.474       .  S
C145        O147   1.264       .  A
C145        O151   1.266       .  A
C149        C162   1.460       .  S
In152       O154   2.212       .  S
In152       O155   2.270       .  S
In152       O163   2.223   1_556  S
In152       O157   2.261   1_556  S
In152       O159   2.269       .  S
In152       O160   2.216       .  S
In152       O161   2.219       .  S
In152       O164   2.255       .  S
C153        O159   1.265       .  A
C153        O161   1.260       .  A
C153        C355   1.490       .  S
O154        C162   1.257       .  A
O155        C162   1.263       .  A
C156        O163   1.260       .  A
C156        O157   1.266       .  A
C156        C338   1.478       .  S
C158        O160   1.261       .  A
C158        O164   1.266       .  A
C158        C175   1.463       .  S
C165        C166   1.370       .  D
C165        C411   1.503       .  S
C165        C439   1.504       .  S
C166        C341   1.503       .  S
C166        C369   1.500       .  S
C167        C168   1.360       .  D
C167        C352   1.495       .  S
C167        C380   1.489       .  S
C168        C397   1.505       .  S
C168        C422   1.492       .  S
In169       O171   2.216       .  S
In169       O172   2.272       .  S
In169       O180   2.185   1_554  S
In169       O174   2.276   1_554  S
In169       O176   2.249       .  S
In169       O177   2.217       .  S
In169       O178   2.219       .  S
In169       O181   2.253   1_554  S
C170        O176   1.267       .  A
C170        O178   1.261       .  A
C170        C327   1.475       .  S
O171        C179   1.258       .  A
O172        C179   1.264       .  A
C173        O180   1.260       .  A
C173        O174   1.267       .  A
C173        C310   1.487       .  S
C175        O177   1.262   1_556  A
C175        O181   1.265       .  A
C179        C188   1.463       .  S
In182       O184   2.255       .  S
In182       O185   2.220   1_554  S
In182       O193   2.217   1_554  S
In182       O187   2.266   1_554  S
In182       O189   2.275       .  S
In182       O190   2.269   1_554  S
In182       O191   2.197       .  S
In182       O194   2.210       .  S
C183        O189   1.270       .  A
C183        O191   1.261       .  A
C183        C296   1.487       .  S
O184        C192   1.267   1_554  A
O185        C192   1.264       .  A
C186        O193   1.261       .  A
C186        O187   1.270       .  A
C186        C285   1.485       .  S
C188        O190   1.267   1_554  A
C188        O194   1.259       .  A
In195       O197   2.208       .  S
In195       O198   2.270       .  S
In195       O206   2.207       .  S
In195       O200   2.275       .  S
In195       O202   2.259       .  S
In195       O203   2.210   1_655  S
In195       O204   2.226       .  S
In195       O207   2.263   1_655  S
C196        O202   1.267       .  A
C196        O204   1.260       .  A
C196        C257   1.481       .  S
O197        C205   1.257       .  A
O198        C205   1.263       .  A
C199        O206   1.261       .  A
C199        O200   1.266       .  A
C199        C268   1.490       .  S
C201        O203   1.261       .  A
C201        O207   1.266       .  A
C205        C214   1.458       .  S
In208       O210   2.235       .  S
In208       O211   2.225       .  S
In208       O219   2.216       .  S
In208       O213   2.254       .  S
In208       O215   2.257       .  S
In208       O216   2.264       .  S
In208       O217   2.210       .  S
In208       O220   2.199       .  S
C209        O215   1.269       .  A
C209        O217   1.260       .  A
C209        C229   1.486       .  S
O210        C218   1.265       .  A
O211        C218   1.264       .  A
C212        O219   1.261       .  A
C212        O213   1.268       .  A
C212        C240   1.478       .  S
C214        O216   1.267       .  A
C214        O220   1.258       .  A
C221        C222   1.361       .  D
C221        C299   1.503       .  S
C221        C324   1.494       .  S
C222        C243   1.497       .  S
C222        C271   1.492       .  S
C223        C224   1.363       .  D
C223        C282   1.496       .  S
C223        C313   1.489       .  S
C224        C226   1.505       .  S
C224        C254   1.503       .  S
C225        C226   1.404       .  A
C225        C230   1.397       .  A
C225        H232   1.083       .  S
C226        C227   1.418       .  A
C227        C228   1.407       .  A
C227        N234   1.428       .  S
C228        C229   1.403       .  A
C228        H233   1.084       .  S
C229        C230   1.416       .  A
C230        N231   1.431       .  S
N231        O235   1.263       .  A
N231        O236   1.262       .  A
N234        O237   1.262       .  A
N234        O238   1.262       .  A
C239        C240   1.400       .  A
C239        C244   1.403       .  A
C239        H246   1.084       .  S
C240        C241   1.414       .  A
C241        C242   1.407       .  A
C241        N248   1.441       .  S
C242        C243   1.404       .  A
C242        H247   1.081       .  S
C243        C244   1.417       .  A
C244        N245   1.438       .  S
N245        O249   1.263       .  A
N245        O250   1.261       .  A
N248        O251   1.263       .  A
N248        O252   1.263       .  A
C253        C254   1.406       .  A
C253        C258   1.411       .  A
C253        H260   1.081       .  S
C254        C255   1.412       .  A
C255        C256   1.399       .  A
C255        N262   1.426       .  S
C256        C257   1.399       .  A
C256        H261   1.084       .  S
C257        C258   1.416       .  A
C258        N259   1.441       .  S
N259        O263   1.263       .  A
N259        O264   1.263   1_655  A
N262        O265   1.262       .  A
N262        O266   1.261       .  A
C267        C268   1.403       .  A
C267        C272   1.392       .  A
C267        H274   1.084       .  S
C268        C269   1.419       .  A
C269        C270   1.415       .  A
C269        N276   1.438       .  S
C270        C271   1.405       .  A
C270        H275   1.082       .  S
C271        C272   1.410       .  A
C272        N273   1.431       .  S
N273        O277   1.262       .  A
N273        O278   1.260       .  A
N276        O279   1.263       .  A
N276        O280   1.263       .  A
C281        C282   1.402       .  A
C281        C286   1.407       .  A
C281        H288   1.082       .  S
C282        C283   1.418       .  A
C283        C284   1.408       .  A
C283        N290   1.442       .  S
C284        C285   1.402       .  A
C284        H289   1.083       .  S
C285        C286   1.417       .  A
C286        N287   1.440       .  S
N287        O291   1.263       .  A
N287        O292   1.263       .  A
N290        O293   1.262       .  A
N290        O294   1.263       .  A
C295        C296   1.402       .  A
C295        C300   1.393       .  A
C295        H302   1.084       .  S
C296        C297   1.416       .  A
C297        C298   1.417       .  A
C297        N304   1.441       .  S
C298        C299   1.409       .  A
C298        H303   1.078       .  S
C299        C300   1.413       .  A
C300        N301   1.433       .  S
N301        O305   1.263       .  A
N301        O306   1.260       .  A
N304        O307   1.263       .  A
N304        O308   1.263       .  A
C309        C310   1.402       .  A
C309        C314   1.392       .  A
C309        H316   1.084       .  S
C310        C311   1.417       .  A
C311        C312   1.411       .  A
C311        N318   1.433       .  S
C312        C313   1.407       .  A
C312        H317   1.082       .  S
C313        C314   1.415       .  A
C314        N315   1.438       .  S
N315        O319   1.263       .  A
N315        O320   1.258       .  A
N318        O321   1.262       .  A
N318        O322   1.262       .  A
C323        C324   1.403       .  A
C323        C328   1.410       .  A
C323        H330   1.082       .  S
C324        C325   1.410       .  A
C325        C326   1.395       .  A
C325        N332   1.428       .  S
C326        C327   1.399       .  A
C326        H331   1.084       .  S
C327        C328   1.416       .  A
C328        N329   1.442       .  S
N329        O333   1.263       .  A
N329        O334   1.263       .  A
N332        O335   1.262       .  A
N332        O336   1.262       .  A
C337        C338   1.399       .  A
C337        C342   1.400       .  A
C337        H344   1.084       .  S
C338        C339   1.414       .  A
C339        C340   1.409       .  A
C339        N346   1.442       .  S
C340        C341   1.408       .  A
C340        H345   1.081       .  S
C341        C342   1.416       .  A
C342        N343   1.431       .  S
N343        O347   1.263       .  A
N343        O348   1.261       .  A
N346        O349   1.263       .  A
N346        O350   1.263       .  A
C351        C352   1.405       .  A
C351        C356   1.410       .  A
C351        H358   1.081       .  S
C352        C353   1.415       .  A
C353        C354   1.401       .  A
C353        N360   1.443       .  S
C354        C355   1.405       .  A
C354        H359   1.083       .  S
C355        C356   1.417       .  A
C356        N357   1.438       .  S
N357        O361   1.263       .  A
N357        O362   1.262       .  A
N360        O363   1.263       .  A
N360        O364   1.262       .  A
C365        C366   1.407       .  A
C365        C370   1.419       .  A
C365        H372   1.083       .  S
C366        C367   1.412       .  A
C367        C368   1.386       .  A
C367        N374   1.434       .  S
C368        C369   1.401       .  A
C368        H373   1.082       .  S
C369        C370   1.425       .  A
C370        N371   1.443       .  S
N371        O375   1.263       .  A
N371        O376   1.259       .  A
N374        O377   1.262       .  A
N374        O378   1.263       .  A
C379        C380   1.404       .  A
C379        C384   1.409       .  A
C379        H386   1.082       .  S
C380        C381   1.419       .  A
C381        C382   1.398       .  A
C381        N388   1.441       .  S
C382        C383   1.398       .  A
C382        H387   1.084       .  S
C383        C384   1.416       .  A
C384        N385   1.441       .  S
N385        O389   1.263       .  A
N385        O390   1.263       .  A
N388        O391   1.260       .  A
N388        O392   1.263       .  A
C393        C394   1.400       .  A
C393        C398   1.399       .  A
C393        H400   1.085       .  S
C394        C395   1.414       .  A
C395        C396   1.408       .  A
C395        N402   1.437       .  S
C396        C397   1.408       .  A
C396        H401   1.082       .  S
C397        C398   1.417       .  A
C398        N399   1.425       .  S
N399        O403   1.262       .  A
N399        O404   1.262       .  A
N402        O405   1.262       .  A
N402        O406   1.263       .  A
C407        C408   1.402       .  A
C407        C412   1.413       .  A
C407        H414   1.083       .  S
C408        C409   1.410       .  A
C409        C410   1.399       .  A
C409        N416   1.441       .  S
C410        C411   1.404       .  A
C410        H415   1.076       .  S
C411        C412   1.428       .  A
C412        N413   1.444       .  S
N413        O417   1.263       .  A
N413        O418   1.258       .  A
N416        O419   1.263       .  A
N416        O420   1.263       .  A
C421        C422   1.397       .  A
C421        C426   1.393       .  A
C421        H428   1.082       .  S
C422        C423   1.414       .  A
C423        C424   1.407       .  A
C423        N430   1.430       .  S
C424        C425   1.405       .  A
C424        H429   1.084       .  S
C425        C426   1.418       .  A
C426        N427   1.431       .  S
N427        O431   1.262       .  A
N427        O432   1.263       .  A
N430        O433   1.261       .  A
N430        O434   1.262       .  A
C435        C436   1.405       .  A
C435        C440   1.408       .  A
C435        H442   1.084       .  S
C436        C437   1.408       .  A
C437        C438   1.397       .  A
C437        N444   1.432       .  S
C438        C439   1.406       .  A
C438        H443   1.076       .  S
C439        C440   1.417       .  A
C440        N441   1.433       .  S
N441        O445   1.262       .  A
N441        O446   1.259       .  A
N444        O447   1.262       .  A
N444        O448   1.262       .  A
C449        C450   1.405       .  A
C449        C454   1.411       .  A
C449        H456   1.084       .  S
C450        C451   1.409       .  A
C451        C452   1.398       .  A
C451        N458   1.438       .  S
C452        C453   1.403       .  A
C452        H457   1.083       .  S
C453        C454   1.421       .  A
C454        N455   1.442       .  S
N455        O459   1.263       .  A
N455        O460   1.261       .  A
N458        O461   1.262       .  A
N458        O462   1.263       .  A
C463        C464   1.399       .  A
C463        C468   1.385       .  A
C463        H470   1.085       .  S
C464        C465   1.419       .  A
C465        C466   1.420       .  A
C465        N472   1.442       .  S
C466        C467   1.409       .  A
C466        H471   1.082       .  S
C467        C468   1.411       .  A
C468        N469   1.429       .  S
N469        O473   1.263       .  A
N469        O474   1.260       .  A
N472        O475   1.263       .  A
N472        O476   1.263       .  A
C477        C478   1.409       .  A
C477        C482   1.396       .  A
C477        H484   1.079       .  S
C478        C479   1.425       .  A
C479        C480   1.408       .  A
C479        N486   1.429       .  S
C480        C481   1.398       .  A
C480        H485   1.084       .  S
C481        C482   1.412       .  A
C482        N483   1.433       .  S
N483        O487   1.262       .  A
N483        O488   1.263       .  A
N486        O489   1.262       .  A
N486        O490   1.263       .  A
C491        C492   1.399       .  A
C491        C496   1.400       .  A
C491        H498   1.084       .  S
C492        C493   1.414       .  A
C493        C494   1.410       .  A
C493        N500   1.442       .  S
C494        C495   1.406       .  A
C494        H499   1.080       .  S
C495        C496   1.415       .  A
C496        N497   1.435       .  S
N497        O501   1.263       .  A
N497        O502   1.260       .  A
N500        O503   1.263       .  A
N500        O504   1.263       .  A
C505        C506   1.404       .  A
C505        C510   1.410       .  A
C505        H512   1.083       .  S
C506        C507   1.416       .  A
C507        C508   1.396       .  A
C507        N514   1.436       .  S
C508        C509   1.397       .  A
C508        H513   1.084       .  S
C509        C510   1.415       .  A
C510        N511   1.442       .  S
N511        O515   1.263       .  A
N511        O516   1.263       .  A
N514        O517   1.259       .  A
N514        O518   1.263       .  A
C519        C520   1.405       .  A
C519        C524   1.407       .  A
C519        H526   1.084       .  S
C520        C521   1.419       .  A
C521        C522   1.400       .  A
C521        N528   1.445       .  S
C522        C523   1.402       .  A
C522        H527   1.084       .  S
C523        C524   1.416       .  A
C524        N525   1.437       .  S
N525        O529   1.263       .  A
N525        O530   1.262       .  A
N528        O531   1.261       .  A
N528        O532   1.263       .  A
C533        C534   1.403       .  A
C533        C538   1.394       .  A
C533        H540   1.084       .  S
C534        C535   1.419       .  A
C535        C536   1.417       .  A
C535        N542   1.438       .  S
C536        C537   1.407       .  A
C536        H541   1.082       .  S
C537        C538   1.410       .  A
C538        N539   1.432       .  S
N539        O543   1.263       .  A
N539        O544   1.259       .  A
N542        O545   1.263       .  A
N542        O546   1.263       .  A
C547        C548   1.404       .  A
C547        C552   1.402       .  A
C547        H554   1.084       .  S
C548        C549   1.413       .  A
C549        C550   1.409       .  A
C549        N556   1.437       .  S
C550        C551   1.409       .  A
C550        H555   1.081       .  S
C551        C552   1.415       .  A
C552        N553   1.431       .  S
N553        O557   1.263       .  A
N553        O558   1.260       .  A
N556        O559   1.263       .  A
N556        O560   1.263       .  A
C561        C562   1.408       .  A
C561        C566   1.402       .  A
C561        H568   1.084       .  S
C562        C563   1.417       .  A
C563        C564   1.401       .  A
C563        N570   1.428       .  S
C564        C565   1.400       .  A
C564        H569   1.085       .  S
C565        C566   1.413       .  A
C566        N567   1.434       .  S
N567        O571   1.262       .  A
N567        O572   1.262       .  A
N570        O573   1.262       .  A
N570        O574   1.262       .  A
C575        C576   1.403       .  A
C575        C580   1.396       .  A
C575        H582   1.084       .  S
C576        C577   1.415       .  A
C577        C578   1.406       .  A
C577        N584   1.432       .  S
C578        C579   1.404       .  A
C578        H583   1.080       .  S
C579        C580   1.412       .  A
C580        N581   1.433       .  S
N581        O585   1.263       .  A
N581        O586   1.259       .  A
N584        O587   1.262       .  A
N584        O588   1.262       .  A
C589        C590   1.405       .  A
C589        C594   1.393       .  A
C589        H596   1.083       .  S
C590        C591   1.417       .  A
C591        C592   1.411       .  A
C591        N598   1.432       .  S
C592        C593   1.407       .  A
C592        H597   1.084       .  S
C593        C594   1.411       .  A
C594        N595   1.438       .  S
N595        O599   1.263       .  A
N595        O600   1.260       .  A
N598        O601   1.262       .  A
N598        O602   1.262       .  A
C603        C604   1.397       .  A
C603        C608   1.398       .  A
C603        H610   1.084       .  S
C604        C605   1.418       .  A
C605        C606   1.411       .  A
C605        N612   1.440       .  S
C606        C607   1.403       .  A
C606        H611   1.083       .  S
C607        C608   1.418       .  A
C608        N609   1.435       .  S
N609        O613   1.263       .  A
N609        O614   1.259       .  A
N612        O615   1.263       .  A
N612        O616   1.263       .  A
C617        C618   1.404       .  A
C617        C622   1.405       .  A
C617        H624   1.082       .  S
C618        C619   1.414       .  A
C619        C620   1.401       .  A
C619        N626   1.426       .  S
C620        C621   1.400       .  A
C620        H625   1.084       .  S
C621        C622   1.416       .  A
C622        N623   1.440       .  S
N623        O627   1.263       .  A
N623        O628   1.263       .  A
N626        O629   1.262       .  A
N626        O630   1.262       .  A
C631        C632   1.405       .  A
C631        C636   1.408       .  A
C631        H638   1.075       .  S
C632        C633   1.416       .  A
C633        C634   1.402       .  A
C633        N640   1.433       .  S
C634        C635   1.399       .  A
C634        H639   1.084       .  S
C635        C636   1.413       .  A
C636        N637   1.441       .  S
N637        O641   1.263       .  A
N637        O642   1.263       .  A
N640        O643   1.261       .  A
N640        O644   1.263       .  A
C645        C646   1.407       .  A
C645        C650   1.407       .  A
C645        H652   1.084       .  S
C646        C647   1.411       .  A
C647        C648   1.399       .  A
C647        N654   1.436       .  S
C648        C649   1.403       .  A
C648        H653   1.082       .  S
C649        C650   1.416       .  A
C650        N651   1.443       .  S
N651        O655   1.263       .  A
N651        O656   1.261       .  A
N654        O657   1.262       .  A
N654        O658   1.263       .  A
C659        C660   1.402       .  A
C659        C664   1.393       .  A
C659        H666   1.084       .  S
C660        C661   1.415       .  A
C661        C662   1.411       .  A
C661        N668   1.438       .  S
C662        C663   1.407       .  A
C662        H667   1.079       .  S
C663        C664   1.412       .  A
C664        N665   1.430       .  S
N665        O669   1.261       .  A
N665        O670   1.262       .  A
N668        O671   1.263       .  A
N668        O672   1.263       .  A
