geometry optimzed in LAMMPS
_audit_creation_date              2020-11-30 
_audit_creation_method            'lammps2cif' 
_symmetry_space_group_name_H-M    'P1' 
_symmetry_Int_Tables_number       1 
_symmetry_cell_setting            triclinic 
loop_ 
_symmetry_equiv_pos_as_xyz 
  x,y,z 
_cell_length_a                    46.61598548 
_cell_length_b                    46.82714543673149 
_cell_length_c                    46.52741762975277 
_cell_angle_alpha                 90.35484754172842 
_cell_angle_beta                  90.36543164713999 
_cell_angle_gamma                 90.72540732899125 
loop_ 
_atom_site_label 
_atom_site_type_symbol 
_atom_site_fract_x 
_atom_site_fract_y 
_atom_site_fract_z 
_atom_site_charge 
O1          O  0.52602382  0.03742790  0.82976701    -0.86700
O2          O  0.52508095  0.04457909  0.66670851    -0.86800
O3          O  0.58209845  0.03659207  0.74581942    -0.88500
O4          O  0.51415950  0.09903020  0.75466523    -0.87300
O5          O  0.46495528  0.09661475  0.75355293    -0.86900
O6          O  0.58402896  0.98774958  0.74502467    -0.88200
O7          O  0.54644416  0.07115725  0.70257827    -0.86700
O8          O  0.55038138  0.06354911  0.79593888    -0.86300
Zr9        Zr  0.53215681  0.05059689  0.74846003     2.84300
O10         O  0.49190125  0.04941737  0.71833917    -1.08300
O11         O  0.53305742  0.00964673  0.77700158    -1.09000
C12         C  0.54523635  0.05584750  0.82204064     1.06400
C13         C  0.54153864  0.06517353  0.67580476     1.06400
C14         C  0.59583558  0.01289974  0.74398737     1.09400
C15         C  0.48903282  0.11025583  0.75673219     1.07100
H16         H  0.55108297  0.01117314  0.70657766     0.32700
O17         O  0.53424386  0.01031402  0.71853845    -1.29200
H18         H  0.49076095  0.06427214  0.78954009     0.32400
O19         O  0.49103129  0.04803647  0.77666193    -1.30900
O20         O  0.46421621  0.97388257  0.66299892    -0.86700
O21         O  0.45583691  0.97581772  0.82675305    -0.88200
O22         O  0.55013371  0.95078093  0.70151019    -0.86800
O23         O  0.43786037  0.06695852  0.69992870    -0.86800
O24         O  0.43251637  0.06190894  0.79334015    -0.86500
O25         O  0.55229684  0.95481260  0.79423469    -0.86300
O26         O  0.47102833  0.91668116  0.74712912    -0.86700
O27         O  0.40268065  0.97977659  0.74115110    -0.86200
O28         O  0.52023325  0.91952765  0.74951043    -0.87200
O29         O  0.40173756  0.02873121  0.74279363    -0.86400
O30         O  0.52835445  0.97690570  0.66610688    -0.86800
O31         O  0.52412525  0.97491330  0.82888739    -0.86500
O32         O  0.46023402  0.04128381  0.82834885    -0.86100
O33         O  0.46125640  0.04179630  0.66484340    -0.86600
O34         O  0.43942392  0.94788178  0.69668952    -0.86900
O35         O  0.43316858  0.94967495  0.79118296    -0.88200
Zr36       Zr  0.49383859  0.00886415  0.68871292     2.83100
Zr37       Zr  0.49136134  0.00706801  0.80469313     2.83500
Zr38       Zr  0.53465407  0.96945721  0.74735744     2.84100
Zr39       Zr  0.45067976  0.04691011  0.74657486     2.83400
Zr40       Zr  0.45267615  0.96534203  0.74482278     2.84200
O41         O  0.45079374  0.00570659  0.77474281    -1.08800
O42         O  0.49436637  0.96777179  0.71713734    -1.08300
C43         C  0.44640252  0.95399526  0.67052234     1.06400
C44         C  0.43725830  0.95703869  0.81780775     1.09000
C45         C  0.54554335  0.95731486  0.67503137     1.06600
C46         C  0.44405333  0.06151891  0.67340785     1.06900
C47         C  0.44034807  0.05824929  0.81975424     1.06500
C48         C  0.54496939  0.95897791  0.82062637     1.06100
C49         C  0.49618702  0.90557106  0.74973855     1.06500
C50         C  0.38949279  0.00390784  0.74071635     1.06000
H51         H  0.49316531  0.95000276  0.78733361     0.32700
O52         O  0.49300699  0.96668878  0.77523478    -1.29900
H53         H  0.43576968  0.00627367  0.70366674     0.32700
O54         O  0.45218329  0.00662949  0.71643773    -1.31200
C55         C  0.67587126  0.21622420  0.50289816     0.86300
C56         C  0.66669455  0.19502120  0.52639394    -0.53900
C57         C  0.63783125  0.18950830  0.52723261     0.09200
C58         C  0.62063185  0.20538191  0.50404825     0.20200
C59         C  0.66371890  0.20356298  0.47483663    -0.54700
C60         C  0.63501286  0.19702508  0.47532866     0.09300
C61         C  0.65724199  0.24259576  0.50846514    -0.54200
C62         C  0.62856561  0.23698560  0.50938798     0.09900
H63         H  0.68170700  0.18592110  0.54164471     0.14400
H64         H  0.59733100  0.20066641  0.50481264     0.00100
H65         H  0.67713273  0.19935370  0.45633835     0.14700
H66         H  0.66507519  0.26406454  0.51244607     0.14500
O67         O  0.55185971  0.07676114  0.29188414    -0.86700
O68         O  0.44081300  0.95597288  0.29399181    -0.86800
O69         O  0.46416552  0.05005323  0.32701238    -0.88500
O70         O  0.52869268  0.98309019  0.32930034    -0.87300
O71         O  0.55149343  0.95670770  0.29482358    -0.86900
O72         O  0.44061840  0.07420909  0.29156495    -0.88200
O73         O  0.46450647  0.98235444  0.32849113    -0.86700
O74         O  0.52841849  0.05216491  0.32729541    -0.86300
Zr75       Zr  0.49688548  0.01617694  0.30474317     2.84300
O76         O  0.49650332  0.97451761  0.27656887    -1.08300
O77         O  0.49696773  0.05605310  0.27473944    -1.09000
C78         C  0.54573190  0.07209347  0.31854292     1.06400
C79         C  0.44671069  0.96240887  0.32039763     1.06400
C80         C  0.44635014  0.06911257  0.31814165     1.09400
C81         C  0.54583831  0.96307796  0.32128738     1.07100
H82         H  0.43903615  0.01501651  0.28831774     0.32700
O83         O  0.45563939  0.01489285  0.27602691    -1.29200
H84         H  0.55449171  0.01612273  0.28817497     0.32400
O85         O  0.53775102  0.01562821  0.27584246    -1.30900
O86         O  0.43658983  0.95761599  0.20134362    -0.86700
O87         O  0.55589701  0.06912781  0.19824893    -0.88200
O88         O  0.40583743  0.03824886  0.24895071    -0.86800
O89         O  0.52029191  0.92427002  0.24513116    -0.86800
O90         O  0.58667510  0.99101244  0.24968252    -0.86500
O91         O  0.47195278  0.10430364  0.24272282    -0.86300
O92         O  0.46160834  0.04482755  0.16459382    -0.86700
O93         O  0.52938962  0.98182278  0.16538619    -0.86200
O94         O  0.43661074  0.06818578  0.19953535    -0.87200
O95         O  0.55424491  0.95798684  0.20046144    -0.86400
O96         O  0.40593572  0.98929376  0.25051865    -0.86800
O97         O  0.52123525  0.10427820  0.24082069    -0.86500
O98         O  0.58728259  0.04001731  0.24848343    -0.86100
O99         O  0.47114833  0.92390376  0.24499187    -0.86600
O100        O  0.46151028  0.98114760  0.16608496    -0.86900
O101        O  0.52899421  0.04556694  0.16392909    -0.88200
Zr102      Zr  0.45552237  0.97355067  0.24742736     2.83100
Zr103      Zr  0.53770804  0.05557950  0.24563962     2.83500
Zr104      Zr  0.45569832  0.05475327  0.24595137     2.84100
Zr105      Zr  0.53706535  0.97402334  0.24738928     2.83400
Zr106      Zr  0.49584963  0.01369655  0.18869137     2.84200
O107        O  0.53722147  0.01410486  0.21751404    -1.08800
O108        O  0.45494216  0.01352300  0.21754798    -1.08300
C109        C  0.44209890  0.96341280  0.17486634     1.06400
C110        C  0.54913867  0.06315844  0.17182833     1.09000
C111        C  0.39315622  0.01363467  0.25108780     1.06600
C112        C  0.49564853  0.91125285  0.24386631     1.06900
C113        C  0.59969370  0.01556724  0.25013523     1.06500
C114        C  0.49670000  0.11671113  0.24012289     1.06100
C115        C  0.44190690  0.06213439  0.17305891     1.06500
C116        C  0.54838616  0.96388174  0.17393631     1.06000
H117        H  0.49622594  0.07127675  0.20395747     0.32700
O118        O  0.49638027  0.05504045  0.21665850    -1.29900
H119        H  0.49582051  0.95647686  0.20597157     0.32700
O120        O  0.49604974  0.97332797  0.21805675    -1.31200
C121        C  0.29600714  0.82564727  0.99786671     0.86300
C122        C  0.31003848  0.83907094  0.97114596    -0.53900
C123        C  0.31466721  0.86787317  0.97321573     0.09200
C124        C  0.30420075  0.88102356  0.00173170     0.20200
C125        C  0.31562552  0.83507996  0.02296979    -0.54700
C126        C  0.32012690  0.86395909  0.02496187     0.09300
C127        C  0.26847194  0.84273582  0.00182705    -0.54200
C128        C  0.27254608  0.87146551  0.00463466     0.09900
H129        H  0.31676941  0.82739141  0.95229868     0.14400
H130        H  0.30755971  0.90450496  0.00320037     0.00100
H131        H  0.32473282  0.82007333  0.03807202     0.14700
H132        H  0.24734629  0.83279932  0.00331753     0.14500
C133        C  0.68526038  0.82174714  0.99742168     0.86300
C134        C  0.66866110  0.83214697  0.02389010    -0.53900
C135        C  0.66419608  0.86089753  0.02436669     0.09200
C136        C  0.67677039  0.87684163  0.99860108     0.20200
C137        C  0.66784212  0.83304881  0.97157377    -0.54700
C138        C  0.66326162  0.86180540  0.97231992     0.09300
C139        C  0.71284598  0.83989231  0.99714016    -0.54200
C140        C  0.70860528  0.86867958  0.99795532     0.09900
H141        H  0.66032634  0.81788781  0.04024506     0.14400
H142        H  0.67290798  0.90013625  0.99954519     0.00100
H143        H  0.65975628  0.82026291  0.95384589     0.14700
H144        H  0.73408397  0.83060557  0.99684147     0.14500
C145        C  0.67549295  0.81118620  0.49504332     0.86300
C146        C  0.66417117  0.82770067  0.46892810    -0.53900
C147        C  0.63640071  0.83644377  0.47130777     0.09200
C148        C  0.62183372  0.82645216  0.49911303     0.20200
C149        C  0.66924136  0.83053453  0.52110066    -0.54700
C150        C  0.64118001  0.83844312  0.52332413     0.09300
C151        C  0.65403768  0.78603563  0.49819232    -0.54200
C152        C  0.62616580  0.79413942  0.50029467     0.09900
H153        H  0.67732777  0.83251670  0.45038184     0.14400
H154        H  0.59897887  0.83252511  0.50097356     0.00100
H155        H  0.68580893  0.83773322  0.53606099     0.14700
H156        H  0.65943983  0.76367949  0.49909962     0.14500
C157        C  0.29403717  0.19231673  0.99574477     0.86300
C158        C  0.30750694  0.18091076  0.02361857    -0.53900
C159        C  0.31599256  0.15299702  0.02219697     0.09200
C160        C  0.30865562  0.13839262  0.99317390     0.20200
C161        C  0.31602867  0.18544612  0.97221659    -0.54700
C162        C  0.32361591  0.15729887  0.97070102     0.09300
C163        C  0.26893184  0.17133691  0.98987838    -0.54200
C164        C  0.27644939  0.14337755  0.98807842     0.09900
H165        H  0.31038387  0.19406275  0.04270864     0.14400
H166        H  0.31468027  0.11556681  0.99175504     0.00100
H167        H  0.32489452  0.20162163  0.95808457     0.14700
H168        H  0.24666491  0.17713574  0.98776015     0.14500
C169        C  0.68951924  0.19844629  0.99143314     0.86300
C170        C  0.67458846  0.18439931  0.96507208    -0.53900
C171        C  0.67242205  0.15533503  0.96686095     0.09200
C172        C  0.68536369  0.14285434  0.99435002     0.20200
C173        C  0.67218286  0.18763590  0.01713062    -0.54700
C174        C  0.66949113  0.15863973  0.01866489     0.09300
C175        C  0.71834551  0.18337564  0.99337302    -0.54200
C176        C  0.71660151  0.15435354  0.99473918     0.09900
H177        H  0.66529240  0.19567114  0.94712905     0.14400
H178        H  0.68336687  0.11925622  0.99544622     0.00100
H179        H  0.66271108  0.20200989  0.03266583     0.14700
H180        H  0.73866226  0.19492109  0.99206657     0.14500
C181        C  0.30780412  0.20496552  0.49755327     0.86300
C182        C  0.31744152  0.18698514  0.47166099    -0.53900
C183        C  0.34641683  0.18312888  0.47034366     0.09200
C184        C  0.36328904  0.19742935  0.49504534     0.20200
C185        C  0.32052215  0.18920524  0.52367539    -0.54700
C186        C  0.34947518  0.18498186  0.52231858     0.09300
C187        C  0.32560055  0.23274479  0.49571952    -0.54200
C188        C  0.35449127  0.22886687  0.49373258     0.09900
H189        H  0.30262658  0.17848805  0.45556071     0.14400
H190        H  0.38685022  0.19456517  0.49389663     0.00100
H191        H  0.30812625  0.18040146  0.54110867     0.14700
H192        H  0.31600311  0.25372781  0.49458902     0.14500
C193        C  0.30700464  0.81743773  0.49190909     0.86300
C194        C  0.32190597  0.83008478  0.51873162    -0.53900
C195        C  0.35116653  0.83159806  0.51701369     0.09200
C196        C  0.36300528  0.81968881  0.48858980     0.20200
C197        C  0.31836748  0.83578996  0.46693097    -0.54700
C198        C  0.34760958  0.83732951  0.46549975     0.09300
C199        C  0.32098545  0.78843133  0.48696594    -0.54200
C200        C  0.35011030  0.78933520  0.48545187     0.09900
H201        H  0.31012184  0.83857795  0.53687534     0.14400
H202        H  0.38676092  0.82042854  0.48719614     0.00100
H203        H  0.30517827  0.84664895  0.45137765     0.14700
H204        H  0.30874782  0.76860003  0.48496073     0.14500
O205        O  0.90146928  0.76615308  0.46781051    -0.86700
O206        O  0.01545189  0.76159944  0.58403759    -0.86800
O207        O  0.93361885  0.71721783  0.54904646    -0.88500
O208        O  0.93598577  0.80998058  0.55132940    -0.87300
O209        O  0.95953494  0.84476862  0.52599754    -0.86900
O210        O  0.96027839  0.68262956  0.52713199    -0.88200
O211        O  0.96625994  0.76045087  0.58353298    -0.86700
O212        O  0.90138676  0.76658043  0.51703320    -0.86300
Zr213      Zr  0.95102561  0.76365820  0.53347127     2.84300
O214        O  0.99180936  0.79331711  0.53445535    -1.08300
O215        O  0.95097839  0.73370545  0.49301650    -1.09000
C216        C  0.88865038  0.76800900  0.49234687     1.06400
C217        C  0.99081815  0.75937142  0.59651028     1.06400
C218        C  0.94062967  0.69100094  0.54456318     1.09400
C219        C  0.94154430  0.83635686  0.54538946     1.07100
H220        H  0.99187518  0.72314871  0.55097474     0.32700
O221        O  0.99183657  0.73512010  0.53414752    -1.29200
H222        H  0.93479621  0.80410429  0.49198477     0.32400
O223        O  0.95135933  0.79193872  0.49226921    -1.30900
O224        O  0.08185667  0.76724108  0.51860341    -0.86700
O225        O  0.96760601  0.76044904  0.40194445    -0.88200
O226        O  0.02600549  0.68366525  0.52702068    -0.86800
O227        O  0.02572590  0.84474985  0.52601386    -0.86800
O228        O  0.96117151  0.84335456  0.45785817    -0.86500
O229        O  0.95749067  0.68072880  0.46270952    -0.86300
O230        O  0.05153289  0.71694471  0.43851796    -0.86700
O231        O  0.04605889  0.80968514  0.43191786    -0.86200
O232        O  0.02638625  0.68204532  0.46208809    -0.87200
O233        O  0.02401669  0.84475793  0.45811365    -0.86400
O234        O  0.05112965  0.71924333  0.55058518    -0.86800
O235        O  0.93171911  0.71468550  0.43881773    -0.86500
O236        O  0.93680377  0.80790610  0.43312089    -0.86100
O237        O  0.04867354  0.81084549  0.55255059    -0.86600
O238        O  0.08277945  0.76797156  0.46939393    -0.86900
O239        O  0.01691322  0.76032906  0.40300544    -0.88200
Zr240      Zr  0.03246661  0.76463373  0.53455738     2.83100
Zr241      Zr  0.95116407  0.76188123  0.45177621     2.83500
Zr242      Zr  0.99238415  0.70573693  0.49350526     2.84100
Zr243      Zr  0.99240626  0.82113830  0.49278814     2.83400
Zr244      Zr  0.03315192  0.76340873  0.45261086     2.84200
O245        O  0.99209741  0.79126937  0.45232172    -1.08800
O246        O  0.03329875  0.73514212  0.49384039    -1.08300
C247        C  0.09504594  0.76931367  0.49440358     1.06400
C248        C  0.99247276  0.75947436  0.38981690     1.09000
C249        C  0.04528919  0.69274127  0.54511645     1.06600
C250        C  0.04340653  0.83697854  0.54587966     1.06900
C251        C  0.94312263  0.83431111  0.43863109     1.06500
C252        C  0.93724276  0.68850385  0.44541349     1.06100
C253        C  0.04602981  0.69054811  0.44450124     1.06500
C254        C  0.04041041  0.83610026  0.43754789     1.06000
H255        H  0.99229498  0.72106177  0.43531106     0.32700
O256        O  0.99229391  0.73352335  0.45195247    -1.29900
H257        H  0.04993962  0.80550612  0.49325825     0.32700
O258        O  0.03326839  0.79305746  0.49330411    -1.31200
O259        O  0.90280853  0.25471131  0.47606330    -0.86700
O260        O  0.02116377  0.26710398  0.58928848    -0.86800
O261        O  0.94009202  0.21316938  0.55979081    -0.88500
O262        O  0.93521279  0.30570271  0.55708757    -0.87300
O263        O  0.96003370  0.34083094  0.53308754    -0.86900
O264        O  0.96440213  0.17903557  0.53445790    -0.88200
O265        O  0.97207100  0.26416224  0.58963314    -0.86700
O266        O  0.90405054  0.25271262  0.52532129    -0.86300
Zr267      Zr  0.95388586  0.25995708  0.54091416     2.84300
O268        O  0.99456591  0.29006493  0.54041772    -1.08300
O269        O  0.95295586  0.23114558  0.49987621    -1.09000
C270        C  0.89085954  0.25159336  0.50077493     1.06400
C271        C  0.99663871  0.26741161  0.60219133     1.06400
C272        C  0.94678781  0.18700291  0.55421061     1.09400
C273        C  0.94066910  0.33207631  0.55086007     1.07100
H274        H  0.99631915  0.22131746  0.55776913     0.32700
O275        O  0.99559460  0.23280464  0.54060390    -1.29200
H276        H  0.93499615  0.30035652  0.50078354     0.32400
O277        O  0.95227004  0.28917978  0.50036354    -1.30900
O278        O  0.08480413  0.25799186  0.52044356    -0.86700
O279        O  0.96566551  0.26636013  0.40915970    -0.88200
O280        O  0.02898688  0.18146424  0.53196459    -0.86800
O281        O  0.02888524  0.34371392  0.53063664    -0.86800
O282        O  0.95927621  0.34157451  0.46721988    -0.86500
O283        O  0.96137865  0.17940543  0.46663851    -0.86300
O284        O  0.04654244  0.21552501  0.43764674    -0.86700
O285        O  0.04936689  0.30877950  0.44017687    -0.86200
O286        O  0.02578304  0.18070192  0.46539210    -0.87200
O287        O  0.02395303  0.34254541  0.46483969    -0.86400
O288        O  0.05238912  0.21695661  0.55731181    -0.86800
O289        O  0.93722822  0.21330200  0.44101007    -0.86500
O290        O  0.93223745  0.30648108  0.44495680    -0.86100
O291        O  0.05549707  0.30960457  0.55328414    -0.86600
O292        O  0.08296597  0.25770111  0.47116132    -0.86900
O293        O  0.01475784  0.26698290  0.40824489    -0.88200
Zr294      Zr  0.03622610  0.26275677  0.53915985     2.83100
Zr295      Zr  0.95157974  0.26034860  0.45917489     2.83500
Zr296      Zr  0.99450382  0.20378915  0.49951116     2.84100
Zr297      Zr  0.99335498  0.31887995  0.49971510     2.83400
Zr298      Zr  0.03302185  0.26205124  0.45698570     2.84200
O299        O  0.99207916  0.29007136  0.45858928    -1.08800
O300        O  0.03496815  0.23363904  0.49812374    -1.08300
C301        C  0.09644994  0.25578648  0.49537012     1.06400
C302        C  0.98992085  0.26878175  0.39603133     1.09000
C303        C  0.04697849  0.19040818  0.55140787     1.06600
C304        C  0.04935663  0.33587616  0.54775784     1.06900
C305        C  0.93901269  0.33292372  0.45002637     1.06500
C306        C  0.94348887  0.18714912  0.44693720     1.06100
C307        C  0.04176865  0.18916336  0.44451555     1.06500
C308        C  0.04272429  0.33488373  0.44611282     1.06000
H309        H  0.99210522  0.22056682  0.44073924     0.32700
O310        O  0.99259694  0.23219429  0.45795971    -1.29900
H311        H  0.05194099  0.30321844  0.49730485     0.32700
O312        O  0.03493681  0.29124534  0.49804734    -1.31200
C313        C  0.80060953  0.51380769  0.67923579     0.86300
C314        C  0.81304195  0.48555527  0.66834307    -0.53900
C315        C  0.81784700  0.48475030  0.63945833     0.09200
C316        C  0.80951173  0.51227436  0.62378679     0.20200
C317        C  0.82177199  0.53687515  0.66844883    -0.54700
C318        C  0.82646185  0.53601587  0.63952061     0.09300
C319        C  0.77362179  0.51865309  0.66088476    -0.54200
C320        C  0.77817176  0.51785879  0.63193237     0.09900
H321        H  0.81908804  0.46832974  0.68259286     0.14400
H322        H  0.81334329  0.51128764  0.60028997     0.00100
H323        H  0.83131286  0.55361302  0.68157608     0.14700
H324        H  0.75275813  0.52308690  0.67005552     0.14500
C325        C  0.18772263  0.52037137  0.68582767     0.86300
C326        C  0.16831642  0.54443716  0.67474004    -0.53900
C327        C  0.16450951  0.54449674  0.64553369     0.09200
C328        C  0.18069986  0.52056500  0.62986920     0.20200
C329        C  0.17440843  0.49275806  0.67346452    -0.54700
C330        C  0.17005116  0.49263992  0.64426130     0.09300
C331        C  0.21546663  0.52498372  0.66879539    -0.54200
C332        C  0.21208468  0.52501792  0.63975564     0.09900
H333        H  0.15983977  0.56135468  0.68798775     0.14400
H334        H  0.17766048  0.52104933  0.60629904     0.00100
H335        H  0.16847820  0.47496306  0.68712836     0.14700
H336        H  0.23627598  0.52869261  0.67887835     0.14500
C337        C  0.81293969  0.01165519  0.29300503     0.86300
C338        C  0.81960788  0.98623782  0.31270613    -0.53900
C339        C  0.84733111  0.98571240  0.32218743     0.09200
C340        C  0.86630079  0.00996929  0.31059512     0.20200
C341        C  0.82297309  0.03828127  0.30987595    -0.54700
C342        C  0.85066788  0.03728204  0.31946444     0.09300
C343        C  0.83494129  0.00873736  0.26858185    -0.54200
C344        C  0.86271339  0.00778745  0.27788372     0.09900
H345        H  0.80377169  0.97020964  0.31880401     0.14400
H346        H  0.88897610  0.00893453  0.31795656     0.00100
H347        H  0.80914329  0.05631517  0.31396003     0.14700
H348        H  0.82981826  0.00617758  0.24599900     0.14500
C349        C  0.80528691  0.01285913  0.68789182     0.86300
C350        C  0.82132453  0.03973867  0.67751535    -0.53900
C351        C  0.85048271  0.03688167  0.67612725     0.09200
C352        C  0.86104304  0.00733842  0.68591201     0.20200
C353        C  0.81543631  0.98909792  0.66720016    -0.54700
C354        C  0.84453652  0.98619419  0.66638022     0.09300
C355        C  0.81926024  0.00549924  0.71668453    -0.54200
C356        C  0.84816939  0.00236195  0.71585328     0.09900
H357        H  0.81038266  0.05871524  0.67017155     0.14400
H358        H  0.88470335  0.00503552  0.68525496     0.00100
H359        H  0.80166297  0.97548767  0.65413567     0.14700
H360        H  0.80704975  0.00276609  0.73632528     0.14500
C361        C  0.79209699  0.50713082  0.31311860     0.86300
C362        C  0.80621022  0.53461551  0.32494880    -0.53900
C363        C  0.81328529  0.53363641  0.35348748     0.09200
C364        C  0.80405869  0.50550613  0.36819347     0.20200
C365        C  0.81279371  0.48322160  0.32163467    -0.54700
C366        C  0.81894596  0.48210726  0.35046631     0.09300
C367        C  0.76588737  0.50269649  0.33255756    -0.54200
C368        C  0.77202567  0.50123729  0.36103935     0.09900
H369        H  0.81113715  0.55297966  0.31164860     0.14400
H370        H  0.80876974  0.50481029  0.39159000     0.00100
H371        H  0.82197504  0.46875924  0.30597696     0.14700
H372        H  0.74382128  0.50102936  0.32546313     0.14500
C373        C  0.19330688  0.51120886  0.31756370     0.86300
C374        C  0.17425842  0.48563256  0.32626985    -0.53900
C375        C  0.16615039  0.48598936  0.35441042     0.09200
C376        C  0.17831717  0.51155417  0.37159709     0.20200
C377        C  0.17633967  0.53767911  0.32658476    -0.54700
C378        C  0.16841207  0.53797614  0.35486660     0.09300
C379        C  0.21866402  0.50999795  0.33897657    -0.54200
C380        C  0.21078790  0.51033026  0.36703315     0.09900
H381        H  0.16785376  0.46860251  0.31154184     0.14400
H382        H  0.17180938  0.51134201  0.39442752     0.00100
H383        H  0.17104860  0.55465558  0.31174151     0.14700
H384        H  0.24090550  0.50701748  0.33328117     0.14500
C385        C  0.18186714  0.01647658  0.30308423     0.86300
C386        C  0.17022868  0.04125071  0.32160927    -0.53900
C387        C  0.14092774  0.04134877  0.32386116     0.09200
C388        C  0.12596335  0.01656342  0.30765196     0.20200
C389        C  0.16913926  0.98951572  0.31736548    -0.54700
C390        C  0.13987188  0.98947527  0.31981693     0.09300
C391        C  0.16580735  0.01921052  0.27445560    -0.54200
C392        C  0.13678619  0.01935388  0.27677333     0.09900
H393        H  0.18335033  0.05739063  0.33220509     0.14400
H394        H  0.10225187  0.01629895  0.30902113     0.00100
H395        H  0.18227640  0.97242930  0.32569424     0.14700
H396        H  0.17659427  0.02153698  0.25394296     0.14500
C397        C  0.17632845  0.01049656  0.69778335     0.86300
C398        C  0.16550524  0.98555918  0.67898064    -0.53900
C399        C  0.13740930  0.98736214  0.67083529     0.09200
C400        C  0.12232107  0.01400075  0.68255714     0.20200
C401        C  0.16912372  0.03753016  0.68046235    -0.54700
C402        C  0.14088598  0.03926693  0.67249144     0.09300
C403        C  0.15514968  0.01127713  0.72316411    -0.54200
C404        C  0.12715051  0.01308825  0.71503086     0.09900
H405        H  0.17905181  0.96794088  0.67258842     0.14400
H406        H  0.09945308  0.01571042  0.67608363     0.00100
H407        H  0.18486748  0.05396202  0.67529618     0.14700
H408        H  0.16084745  0.01163870  0.74571626     0.14500
O409        O  0.74130281  0.60106314  0.97234143    -0.86700
O410        O  0.74965159  0.48492165  0.08523660    -0.86800
O411        O  0.70029644  0.56457408  0.05704900    -0.88500
O412        O  0.79275550  0.56998075  0.05217114    -0.87300
O413        O  0.82746335  0.54506699  0.02826996    -0.86900
O414        O  0.66500052  0.54223708  0.03041003    -0.88200
O415        O  0.75040590  0.53378703  0.08606783    -0.86700
O416        O  0.74007224  0.59974732  0.02161734    -0.86300
Zr417      Zr  0.74643225  0.55095377  0.03688101     2.84300
O418        O  0.77575351  0.51084246  0.03655073    -1.08300
O419        O  0.71773816  0.55153743  0.99554462    -1.09000
C420        C  0.73818584  0.61276635  0.99736721     1.06400
C421        C  0.75144714  0.50918519  0.09843792     1.06400
C422        C  0.67368445  0.55880284  0.05122761     1.09400
C423        C  0.81909282  0.56446933  0.04611103     1.07100
H424        H  0.70577619  0.51009608  0.05336252     0.32700
O425        O  0.71718535  0.51043130  0.03615740    -1.29200
H426        H  0.78709400  0.56934959  0.99619103     0.32400
O427        O  0.77541688  0.55216422  0.99587992    -1.30900
O428        O  0.74098897  0.42154950  0.01807573    -0.86700
O429        O  0.75075675  0.53591797  0.90461916    -0.88200
O430        O  0.66470820  0.47801843  0.02806013    -0.86800
O431        O  0.82742692  0.47716142  0.02740155    -0.86800
O432        O  0.82855136  0.54482844  0.96356879    -0.86500
O433        O  0.66539362  0.54520946  0.96281719    -0.86300
O434        O  0.69880815  0.45551387  0.93472444    -0.86700
O435        O  0.79218054  0.45285818  0.93859259    -0.86200
O436        O  0.66426821  0.47909148  0.96019543    -0.87200
O437        O  0.82740191  0.47870685  0.96197000    -0.86400
O438        O  0.70004578  0.45552996  0.05370997    -0.86800
O439        O  0.70004147  0.56814691  0.93656309    -0.86500
O440        O  0.79398529  0.57018205  0.93979964    -0.86100
O441        O  0.79214376  0.45209233  0.05087462    -0.86600
O442        O  0.74077954  0.42163110  0.96882965    -0.86900
O443        O  0.74998729  0.48702079  0.90435312    -0.88200
Zr444      Zr  0.74616948  0.47029445  0.03517125     2.83100
Zr445      Zr  0.74661459  0.55229722  0.95449062     2.83500
Zr446      Zr  0.68806161  0.51107136  0.99492452     2.84100
Zr447      Zr  0.80418606  0.51130997  0.99535049     2.83400
Zr448      Zr  0.74559289  0.47090193  0.95353211     2.84200
O449        O  0.77515119  0.51160719  0.95419173    -1.08800
O450        O  0.71665028  0.47040064  0.99435221    -1.08300
C451        C  0.73896477  0.40905287  0.99335034     1.06400
C452        C  0.75221018  0.51138409  0.89175341     1.09000
C453        C  0.67362529  0.46103487  0.04793383     1.06600
C454        C  0.81863688  0.45775077  0.04510563     1.06900
C455        C  0.82043180  0.56415620  0.94565344     1.06500
C456        C  0.67358027  0.56300686  0.94325706     1.06100
C457        C  0.67242081  0.46155281  0.94033278     1.06500
C458        C  0.81876348  0.45892959  0.94430823     1.06000
H459        H  0.70522811  0.51177366  0.93644094     0.32700
O460        O  0.71693769  0.51158588  0.95364445    -1.29900
H461        H  0.78640641  0.45311952  0.99423995     0.32700
O462        O  0.77497781  0.47018261  0.99440987    -1.31200
O463        O  0.25042910  0.59893063  0.97782762    -0.86700
O464        O  0.24079887  0.48407071  0.09237906    -0.86800
O465        O  0.19949406  0.56924316  0.05664289    -0.88500
O466        O  0.29281459  0.56521649  0.06222323    -0.87300
O467        O  0.32707745  0.54001719  0.03795970    -0.86900
O468        O  0.16444428  0.54365472  0.03272218    -0.88200
O469        O  0.24273418  0.53307778  0.09278901    -0.86700
O470        O  0.25059616  0.59970738  0.02708445    -0.86300
Zr471      Zr  0.24593421  0.55002515  0.04343808     2.84300
O472        O  0.27335637  0.50848925  0.04359480    -1.08300
O473        O  0.21701920  0.55039281  0.00222919    -1.09000
C474        C  0.25202937  0.61205977  0.00225530     1.06400
C475        C  0.24063533  0.50857794  0.10532516     1.06400
C476        C  0.17303876  0.56358791  0.05005088     1.09400
C477        C  0.31910816  0.55851198  0.05698778     1.07100
H478        H  0.20324884  0.50936773  0.05947254     0.32700
O479        O  0.21579905  0.50925732  0.04302294    -1.29200
H480        H  0.28801070  0.56610048  0.00306911     0.32400
O481        O  0.27525862  0.54968121  0.00287582    -1.30900
O482        O  0.24669845  0.41802875  0.02573559    -0.86700
O483        O  0.24269189  0.53402225  0.91181674    -0.88200
O484        O  0.16185599  0.47620154  0.03242177    -0.86800
O485        O  0.32518298  0.47644589  0.03706861    -0.86800
O486        O  0.32753670  0.54018018  0.96989992    -0.86500
O487        O  0.16500755  0.54342057  0.96857846    -0.86300
O488        O  0.19745006  0.45009096  0.94619651    -0.86700
O489        O  0.29081570  0.45313174  0.94290313    -0.86200
O490        O  0.16322254  0.47604743  0.96961336    -0.87200
O491        O  0.32580035  0.47581858  0.96958359    -0.86400
O492        O  0.19577052  0.44880968  0.05475462    -0.86800
O493        O  0.20039383  0.56929820  0.94627271    -0.86500
O494        O  0.29316668  0.56359184  0.94407072    -0.86100
O495        O  0.28994457  0.45324994  0.06240580    -0.86600
O496        O  0.24674768  0.41857050  0.97649305    -0.86900
O497        O  0.24108370  0.48511863  0.91097779    -0.88200
Zr498      Zr  0.24358407  0.46769203  0.04272813     2.83100
Zr499      Zr  0.24617243  0.54965826  0.96166693     2.83500
Zr500      Zr  0.18747003  0.50967044  0.00146963     2.84100
Zr501      Zr  0.30279114  0.50848030  0.00311159     2.83400
Zr502      Zr  0.24446034  0.46830041  0.96071086     2.84200
O503        O  0.27440318  0.50875039  0.96138598    -1.08800
O504        O  0.21513725  0.46833446  0.00128553    -1.08300
C505        C  0.24799004  0.40545908  0.00087398     1.06400
C506        C  0.24020065  0.50978093  0.89856715     1.09000
C507        C  0.16949070  0.45537029  0.04874840     1.06600
C508        C  0.31650594  0.45905408  0.05669002     1.06900
C509        C  0.31947499  0.55763574  0.95012242     1.06500
C510        C  0.17378327  0.56314616  0.95125975     1.06100
C511        C  0.17121690  0.45619747  0.95219849     1.06500
C512        C  0.31731473  0.45832954  0.94955050     1.06000
H513        H  0.20377421  0.50945211  0.94389785     0.32700
O514        O  0.21613070  0.50927353  0.96064146    -1.29900
H515        H  0.28520064  0.45120298  0.00226685     0.32700
O516        O  0.27318526  0.46784605  0.00223008    -1.31200
C517        C  0.99962829  0.70229739  0.80631377     0.86300
C518        C  0.02459976  0.68384685  0.81760162    -0.53900
C519        C  0.02520266  0.68110927  0.84689812     0.09200
C520        C  0.00072780  0.69668656  0.86228903     0.20200
C521        C  0.97277285  0.68771239  0.81871778    -0.54700
C522        C  0.97318160  0.68440423  0.84794754     0.09300
C523        C  0.00286987  0.73046564  0.82288250    -0.54200
C524        C  0.00325909  0.72772872  0.85188485     0.09900
H525        H  0.04048051  0.67358838  0.80435715     0.14400
H526        H  0.00152303  0.69438275  0.88598983     0.00100
H527        H  0.95521935  0.67996881  0.80521306     0.14700
H528        H  0.00464092  0.75112213  0.81245582     0.14500
C529        C  0.99506166  0.31226027  0.81629624     0.86300
C530        C  0.96770590  0.32655023  0.82719337    -0.53900
C531        C  0.96716770  0.33088500  0.85627988     0.09200
C532        C  0.99358388  0.31943374  0.87213658     0.20200
C533        C  0.01965681  0.33120851  0.82860514    -0.54700
C534        C  0.01871446  0.33495596  0.85773527     0.09300
C535        C  0.99758561  0.28454871  0.83350299    -0.54200
C536        C  0.99695221  0.28816243  0.86262869     0.09900
H537        H  0.95116210  0.33443818  0.81285871     0.14400
H538        H  0.99272660  0.32269139  0.89574303     0.00100
H539        H  0.03696210  0.34046964  0.81628597     0.14700
H540        H  0.00100950  0.26387485  0.82345371     0.14500
C541        C  0.49056976  0.69703769  0.80674263     0.86300
C542        C  0.46377574  0.68396606  0.82110572    -0.53900
C543        C  0.46500036  0.65506193  0.82429026     0.09200
C544        C  0.49283653  0.64170460  0.81355808     0.20200
C545        C  0.51535645  0.68717631  0.82643152    -0.54700
C546        C  0.51662127  0.65819779  0.82966921     0.09300
C547        C  0.49416263  0.68010937  0.77882547    -0.54200
C548        C  0.49586434  0.65135692  0.78234731     0.09900
H549        H  0.44666779  0.69615643  0.83067876     0.14400
H550        H  0.49365707  0.61820706  0.81654309     0.00100
H551        H  0.53068196  0.70170371  0.83665920     0.14700
H552        H  0.49597826  0.69023693  0.75794769     0.14500
C553        C  0.50035715  0.69805101  0.19556347     0.86300
C554        C  0.52424955  0.68654797  0.17567219    -0.53900
C555        C  0.52443300  0.65729922  0.17305777     0.09200
C556        C  0.50088847  0.64219819  0.19060477     0.20200
C557        C  0.47269570  0.68491718  0.18274903    -0.54700
C558        C  0.47283856  0.65581737  0.17972402     0.09300
C559        C  0.50529842  0.68231717  0.22386534    -0.54200
C560        C  0.50581043  0.65334954  0.22153047     0.09900
H561        H  0.54005610  0.69967927  0.16493372     0.14400
H562        H  0.50118498  0.61858005  0.18856889     0.00100
H563        H  0.45504143  0.69785035  0.17516964     0.14700
H564        H  0.50873491  0.69335796  0.24423814     0.14500
C565        C  0.99099424  0.31449766  0.18291661     0.86300
C566        C  0.01703706  0.32976159  0.16930522    -0.53900
C567        C  0.01609711  0.33102799  0.13984619     0.09200
C568        C  0.98901952  0.31652159  0.12668462     0.20200
C569        C  0.96516475  0.33067073  0.17082623    -0.54700
C570        C  0.96409485  0.33197389  0.14146671     0.09300
C571        C  0.99001852  0.28527267  0.16817114    -0.54200
C572        C  0.98804698  0.28605573  0.13905379     0.09900
H573        H  0.03415273  0.34006770  0.18140412     0.14400
H574        H  0.98822035  0.31693027  0.10287308     0.00100
H575        H  0.94943619  0.34085897  0.18447790     0.14700
H576        H  0.98962847  0.26534134  0.18001698     0.14500
C577        C  0.99700651  0.71133585  0.17822439     0.86300
C578        C  0.97167968  0.69267839  0.16733844    -0.53900
C579        C  0.97305225  0.68610908  0.13881714     0.09200
C580        C  0.99962285  0.69789181  0.12372524     0.20200
C581        C  0.02339806  0.69343071  0.17020010    -0.54700
C582        C  0.02465183  0.68658935  0.14165518     0.09300
C583        C  0.99799996  0.73706556  0.15804577    -0.54200
C584        C  0.99927969  0.73000283  0.12963666     0.09900
H585        H  0.95475381  0.68416486  0.18079904     0.14400
H586        H  0.00051801  0.69234605  0.10049607     0.00100
H587        H  0.03926362  0.68616113  0.18558754     0.14700
H588        H  0.99671693  0.75901265  0.16558672     0.14500
C589        C  0.48988014  0.31848917  0.81178850     0.86300
C590        C  0.51793235  0.33257680  0.82320740    -0.53900
C591        C  0.51815960  0.36172797  0.82183025     0.09200
C592        C  0.49062558  0.37433609  0.80885252     0.20200
C593        C  0.46626930  0.33282583  0.82923175    -0.54700
C594        C  0.46642306  0.36187949  0.82768723     0.09300
C595        C  0.48664195  0.33023682  0.78136725    -0.54200
C596        C  0.48718857  0.35932406  0.77915862     0.09900
H597        H  0.53553631  0.32138256  0.83313091     0.14400
H598        H  0.49131757  0.39797645  0.80849557     0.00100
H599        H  0.45101961  0.32100357  0.84228268     0.14700
H600        H  0.48360518  0.31609169  0.76300490     0.14500
C601        C  0.49985533  0.32772921  0.19506133     0.86300
C602        C  0.47514648  0.33665417  0.17502792    -0.53900
C603        C  0.47385489  0.36537151  0.17043763     0.09200
C604        C  0.49786535  0.38260071  0.18564779     0.20200
C605        C  0.52659487  0.33988745  0.18001048    -0.54700
C606        C  0.52560711  0.36861045  0.17482836     0.09300
C607        C  0.49666089  0.34591529  0.22222939    -0.54200
C608        C  0.49529407  0.37452024  0.21742276     0.09900
H609        H  0.45980336  0.32165159  0.16558032     0.14400
H610        H  0.49679310  0.40598753  0.18229726     0.00100
H611        H  0.54358132  0.32673882  0.17158339     0.14700
H612        H  0.49507784  0.33675893  0.24356377     0.14500
O613        O  0.54575028  0.44735503  0.54378651    -0.86700
O614        O  0.46434362  0.50025969  0.41115069    -0.86800
O615        O  0.48046642  0.42267132  0.47079382    -0.88500
O616        O  0.55875250  0.47026290  0.44764914    -0.87300
O617        O  0.57246865  0.51733420  0.45211243    -0.86900
O618        O  0.44334631  0.43172677  0.50153260    -0.88200
O619        O  0.49533364  0.46386819  0.42115594    -0.86700
O620        O  0.53583025  0.42978583  0.49848380    -0.86300
Zr621      Zr  0.51112632  0.46569955  0.47075535     2.84300
O622        O  0.50856035  0.51228878  0.45327739    -1.08300
O623        O  0.49507358  0.46496909  0.51821696    -1.09000
C624        C  0.54561135  0.42749681  0.52433453     1.06400
C625        C  0.47856296  0.47768367  0.40419505     1.06400
C626        C  0.45695812  0.41555239  0.48376901     1.09400
C627        C  0.57649829  0.49147565  0.44366854     1.07100
H628        H  0.45143512  0.46991859  0.46052846     0.32700
O629        O  0.46363350  0.48192291  0.47250724    -1.29200
H630        H  0.56008214  0.48797940  0.49941992     0.32400
O631        O  0.54067901  0.49496010  0.49948775    -1.30900
O632        O  0.43719252  0.57570031  0.46089537    -0.86700
O633        O  0.52314899  0.52520008  0.58957550    -0.88200
O634        O  0.40292311  0.48341308  0.49324891    -0.86800
O635        O  0.53274212  0.56449277  0.43454224    -0.86800
O636        O  0.58219134  0.54076819  0.51036354    -0.86500
O637        O  0.45442486  0.45400970  0.56588683    -0.86300
O638        O  0.42748317  0.55182691  0.55506167    -0.86700
O639        O  0.50373320  0.60040901  0.52694472    -0.86200
O640        O  0.41361019  0.50492057  0.54982080    -0.87200
O641        O  0.54159283  0.59079006  0.49727421    -0.86400
O642        O  0.41187837  0.51189366  0.45416234    -0.86800
O643        O  0.50040826  0.46425997  0.58090001    -0.86500
O644        O  0.57354921  0.51202982  0.54925965    -0.86100
O645        O  0.48568423  0.55869707  0.42059184    -0.86600
O646        O  0.44456961  0.59063220  0.50745262    -0.86900
O647        O  0.49274474  0.56191555  0.57935241    -0.88200
Zr648      Zr  0.46132491  0.52896237  0.45536712     2.83100
Zr649      Zr  0.52414039  0.49474838  0.54676880     2.83500
Zr650      Zr  0.44780863  0.48024757  0.52033064     2.84100
Zr651      Zr  0.53810053  0.54158132  0.48167935     2.83400
Zr652      Zr  0.47455703  0.55671478  0.53108401     2.84200
O653        O  0.52209921  0.54131320  0.52928858    -1.08800
O654        O  0.44534558  0.52699905  0.50282146    -1.08300
C655        C  0.43425096  0.59372888  0.48200469     1.06400
C656        C  0.50992726  0.54843101  0.59609576     1.09000
C657        C  0.39536156  0.49619017  0.46990755     1.06600
C658        C  0.51152447  0.56803199  0.41686140     1.06900
C659        C  0.58976297  0.52849609  0.53398636     1.06500
C660        C  0.47588896  0.45164085  0.58358622     1.06100
C661        C  0.40974769  0.53060418  0.55888357     1.06500
C662        C  0.52673379  0.60762767  0.51318378     1.06000
H663        H  0.46974237  0.51010170  0.56877381     0.32700
O664        O  0.47656954  0.51030600  0.54921063    -1.29900
H665        H  0.49065494  0.57738036  0.47630697     0.32700
O666        O  0.49104279  0.55816485  0.48364576    -1.31200
O667        O  0.05697816  0.95130184  0.03420619    -0.86700
O668        O  0.00185807  0.03574210  0.90651515    -0.86800
O669        O  0.03020028  0.94186041  0.94015146    -0.88500
O670        O  0.08129689  0.01743920  0.96646533    -0.87300
O671        O  0.07312599  0.05452367  0.99774373    -0.86900
O672        O  0.98291796  0.92845933  0.94512725    -0.88200
O673        O  0.04029807  0.00666273  0.91527443    -0.86700
O674        O  0.07119098  0.95791468  0.98755030    -0.86300
Zr675      Zr  0.03703389  0.98863642  0.96405835     2.84300
O676        O  0.02132108  0.03584211  0.96721967    -1.08300
O677        O  0.00742152  0.95981400  0.99222553    -1.09000
C678        C  0.07482232  0.94813481  0.01314295     1.06400
C679        C  0.02516434  0.02309186  0.89913665     1.06400
C680        C  0.00864456  0.92446382  0.93625211     1.09400
C681        C  0.08914525  0.04033162  0.98030436     1.07100
H682        H  0.98881096  0.98436927  0.92757738     0.32700
O683        O  0.98967517  0.99115897  0.94720872    -1.29200
H684        H  0.05947556  0.00404330  0.01908234     0.32400
O685        O  0.03999826  0.00464427  0.01194962    -1.30900
O686        O  0.92792502  0.06329608  0.95541142    -0.86700
O687        O  0.98225547  0.97924501  0.08407199    -0.88200
O688        O  0.93420765  0.96942208  0.92999016    -0.86800
O689        O  0.02365618  0.09526519  0.98621853    -0.86800
O690        O  0.04592307  0.04525923  0.06323622    -0.86500
O691        O  0.96397314  0.91740742  0.00112804    -0.86300
O692        O  0.90337237  0.99620298  0.02543806    -0.86700
O693        O  0.95339091  0.07295341  0.04977519    -0.86200
O694        O  0.91201522  0.95821385  0.99533421    -0.87200
O695        O  0.00055471  0.08689276  0.04452186    -0.86400
O696        O  0.94205416  0.01577516  0.91604044    -0.86800
O697        O  0.99321400  0.92614402  0.04023189    -0.86500
O698        O  0.03954919  0.99837948  0.07615408    -0.86100
O699        O  0.99353273  0.08640028  0.94786322    -0.86600
O700        O  0.91193385  0.05314181  0.00084509    -0.86900
O701        O  0.94523255  0.01020918  0.07592148    -0.88200
Zr702      Zr  0.97389678  0.03839892  0.95055461     2.83100
Zr703      Zr  0.01035835  0.97536285  0.03983767     2.83500
Zr704      Zr  0.95998010  0.96268610  0.97580894     2.84100
Zr705      Zr  0.02404600  0.05168672  0.01506512     2.83400
Zr706      Zr  0.94727221  0.02568147  0.02646125     2.84200
O707        O  0.99455603  0.02255706  0.04297062    -1.08800
O708        O  0.94416097  0.00968954  0.97877797    -1.08300
C709        C  0.90898178  0.06398293  0.97563459     1.06400
C710        C  0.95993565  0.99339332  0.09199401     1.09000
C711        C  0.93119478  0.99058107  0.91244087     1.06600
C712        C  0.01099796  0.10242021  0.96254989     1.06900
C713        C  0.04875420  0.02402503  0.08081194     1.06500
C714        C  0.97735396  0.90973389  0.02414768     1.06100
C715        C  0.89608760  0.97254398  0.01266435     1.06500
C716        C  0.97472603  0.09072986  0.05324732     1.06000
H717        H  0.95088839  0.96608519  0.03573791     0.32700
O718        O  0.96272593  0.97813931  0.02380819    -1.29900
H719        H  0.97000845  0.07407016  0.99827343     0.32700
O720        O  0.97661326  0.05462908  0.99797370    -1.31200
C721        C  0.48133261  0.42589780  0.34188409    -0.27800
C722        C  0.47930478  0.44392461  0.31807349     0.01800
C723        C  0.47492792  0.47334722  0.32252169     0.29900
C724        C  0.47328674  0.48432112  0.35073370    -0.19600
C725        C  0.47620691  0.46615569  0.37454776    -0.29000
C726        C  0.47943605  0.43658982  0.36973650     0.43900
C727        C  0.48063064  0.43054170  0.28916488     0.05100
O728        O  0.47139366  0.49123372  0.29956706    -0.57500
H729        H  0.47056608  0.50705883  0.35396200     0.18000
O730        O  0.48097471  0.41779591  0.39220085    -0.64200
H731        H  0.48440260  0.40317201  0.33883280     0.16500
C732        C  0.50295125  0.43671688  0.26973975     0.28700
C733        C  0.50676788  0.41922467  0.24540511    -0.25100
C734        C  0.48901548  0.39515271  0.24074133    -0.24400
C735        C  0.46590769  0.38998036  0.25939382     0.40200
C736        C  0.46171692  0.40775414  0.28311291    -0.26900
O737        O  0.52197391  0.45871617  0.27511517    -0.58800
H738        H  0.52452643  0.42351806  0.23108356     0.15800
O739        O  0.44724358  0.36753356  0.25454875    -0.60200
H740        H  0.44435429  0.40285261  0.29773611     0.14300
H741        H  0.46076186  0.41321464  0.39709215     0.46100
H742        H  0.53794459  0.45006028  0.28606681     0.41500
H743        H  0.45189547  0.35320404  0.26943083     0.45000
H744        H  0.48940232  0.50267957  0.29857204     0.36400
C745        C  0.46868596  0.41087075  0.71802852    -0.27800
C746        C  0.47742932  0.39525623  0.69377933     0.01800
C747        C  0.49064556  0.36868727  0.69808198     0.29900
C748        C  0.49506147  0.35847388  0.72584410    -0.19600
C749        C  0.48521098  0.37335884  0.75024268    -0.29000
C750        C  0.47239757  0.40017827  0.74597926     0.43900
C751        C  0.47489110  0.40758396  0.66433765     0.05100
O752        O  0.49931490  0.35226713  0.67527248    -0.57500
H753        H  0.50619477  0.33846085  0.72802357     0.18000
O754        O  0.46255215  0.41586096  0.76869769    -0.64200
H755        H  0.45928841  0.43172315  0.71542586     0.16500
C756        C  0.44962745  0.42078483  0.65426541     0.28700
C757        C  0.44907755  0.43362366  0.62690804    -0.25100
C758        C  0.47348508  0.43333178  0.60936459    -0.24400
C759        C  0.49787316  0.41842385  0.61878050     0.40200
C760        C  0.49870957  0.40656298  0.64612981    -0.26900
O761        O  0.42537364  0.42094681  0.67081740    -0.58800
H762        H  0.43005988  0.44480446  0.61999258     0.15800
O763        O  0.52159850  0.41616745  0.60164508    -0.60200
H764        H  0.51853689  0.39704339  0.65330231     0.14300
H765        H  0.47655662  0.43182249  0.77117123     0.46100
H766        H  0.42320251  0.44103513  0.67724814     0.41500
H767        H  0.51985230  0.39704094  0.59248980     0.45000
H768        H  0.48159876  0.34280959  0.66782596     0.36400
C769        C  0.01242565  0.79704031  0.08716069    -0.27800
C770        C  0.98774189  0.79753270  0.06978058     0.01800
C771        C  0.96876059  0.77396593  0.06954825     0.29900
C772        C  0.97390623  0.75085763  0.08779896    -0.19600
C773        C  0.99738476  0.75155240  0.10684411    -0.29000
C774        C  0.01712677  0.77441387  0.10592419     0.43900
C775        C  0.97997987  0.82478879  0.05633371     0.05100
O776        O  0.94438848  0.77410554  0.05288945    -0.57500
H777        H  0.95854081  0.73331058  0.08847990     0.18000
O778        O  0.04072722  0.77502147  0.12370579    -0.64200
H779        H  0.02714930  0.81514261  0.08745303     0.16500
C780        C  0.97214442  0.84768697  0.07415274     0.28700
C781        C  0.96958180  0.87496540  0.06277560    -0.25100
C782        C  0.97461576  0.87991472  0.03358702    -0.24400
C783        C  0.98047789  0.85667109  0.01517985     0.40200
C784        C  0.98332834  0.82916408  0.02671667    -0.26900
O785        O  0.96775305  0.84362752  0.10298843    -0.58800
H786        H  0.96473767  0.89259489  0.07707870     0.15800
O787        O  0.98598688  0.86100580  0.98660046    -0.60200
H788        H  0.98950255  0.81161728  0.01288386     0.14300
H789        H  0.03580725  0.78827651  0.13958442     0.46100
H790        H  0.98571138  0.85030206  0.11256290     0.41500
H791        H  0.96758536  0.85678677  0.97654346     0.45000
H792        H  0.92921290  0.78173206  0.06554736     0.36400
C793        C  0.95440646  0.21509730  0.11734724    -0.27800
C794        C  0.97355628  0.20559514  0.09647999     0.01800
C795        C  0.99624859  0.22364372  0.08775484     0.29900
C796        C  0.99993338  0.25073474  0.10047370    -0.19600
C797        C  0.98155891  0.25966536  0.12240171    -0.29000
C798        C  0.95836809  0.24180910  0.13046911     0.43900
C799        C  0.97154073  0.17566496  0.08645165     0.05100
O800        O  0.01540448  0.21457899  0.06750579    -0.57500
H801        H  0.01795862  0.26412141  0.09428409     0.18000
O802        O  0.93953727  0.25032676  0.15131095    -0.64200
H803        H  0.93696119  0.20130169  0.12425652     0.16500
C804        C  0.98518141  0.15409860  0.10215394     0.28700
C805        C  0.98427619  0.12586254  0.09218590    -0.25100
C806        C  0.96968258  0.11870005  0.06666949    -0.24400
C807        C  0.95559267  0.14021763  0.05115598     0.40200
C808        C  0.95640367  0.16853817  0.06121762    -0.26900
O809        O  0.99991296  0.16057680  0.12701394    -0.58800
H810        H  0.99582289  0.10966195  0.10386423     0.15800
O811        O  0.94227132  0.13401477  0.02544237    -0.60200
H812        H  0.94591461  0.18505142  0.04895612     0.14300
H813        H  0.94404665  0.23857893  0.16838924     0.46100
H814        H  0.01952415  0.16602949  0.12077826     0.41500
H815        H  0.95752470  0.13570285  0.01074798     0.45000
H816        H  0.03096339  0.20532476  0.07854592     0.36400
C817        C  0.49762358  0.61033697  0.34960109    -0.27800
C818        C  0.52012080  0.60158262  0.33190208     0.01800
C819        C  0.54208618  0.58474263  0.34364336     0.29900
C820        C  0.54036877  0.57557636  0.37232135    -0.19600
C821        C  0.51675838  0.58287602  0.38938889    -0.29000
C822        C  0.49586531  0.60121994  0.37804620     0.43900
C823        C  0.51960287  0.61007657  0.30123159     0.05100
O824        O  0.56455794  0.57611937  0.32696398    -0.57500
H825        H  0.55656691  0.56137401  0.38063785     0.18000
O826        O  0.47312016  0.60972373  0.39440196    -0.64200
H827        H  0.48097255  0.62391025  0.34109435     0.16500
C828        C  0.49593368  0.60264040  0.28354364     0.28700
C829        C  0.49264044  0.61527212  0.25651368    -0.25100
C830        C  0.51267996  0.63545684  0.24680778    -0.24400
C831        C  0.53750059  0.64123199  0.26355184     0.40200
C832        C  0.54082818  0.62855500  0.29055873    -0.26900
O833        O  0.47502077  0.58430923  0.29326060    -0.58800
H834        H  0.47346904  0.61069446  0.24402643     0.15800
O835        O  0.55784833  0.66049132  0.25440486    -0.60200
H836        H  0.55915700  0.63444013  0.30385913     0.14300
H837        H  0.47958658  0.62787087  0.40360291     0.46100
H838        H  0.48156529  0.56497453  0.28776289     0.41500
H839        H  0.56892361  0.65020694  0.23953830     0.45000
H840        H  0.55840077  0.55742086  0.31873686     0.36400
C841        C  0.52912845  0.62266894  0.71464758    -0.27800
C842        C  0.51153566  0.59885770  0.70892098     0.01800
C843        C  0.49079196  0.59035888  0.72911622     0.29900
C844        C  0.48665416  0.60690848  0.75388197    -0.19600
C845        C  0.50282194  0.63201211  0.75837693    -0.29000
C846        C  0.52501565  0.63915775  0.73920760     0.43900
C847        C  0.51274401  0.58562829  0.68021522     0.05100
O848        O  0.47359826  0.56683279  0.72415332    -0.57500
H849        H  0.46986751  0.60096066  0.76877222     0.18000
O850        O  0.54228466  0.66269772  0.74389715    -0.64200
H851        H  0.54542667  0.62910910  0.69940152     0.16500
C852        C  0.50738036  0.60241318  0.65587505     0.28700
C853        C  0.50832822  0.59020001  0.62864291    -0.25100
C854        C  0.51373771  0.56095237  0.62502796    -0.24400
C855        C  0.51958809  0.54415965  0.64939593     0.40200
C856        C  0.51909264  0.55661318  0.67685249    -0.26900
O857        O  0.50043116  0.63070285  0.65854851    -0.58800
H858        H  0.50390632  0.60361922  0.61027922     0.15800
O859        O  0.52490009  0.51552737  0.64676732    -0.60200
H860        H  0.52334107  0.54360027  0.69553620     0.14300
H861        H  0.56036827  0.65517765  0.75203144     0.46100
H862        H  0.47941267  0.63079194  0.66173063     0.41500
H863        H  0.50577152  0.50603108  0.64733292     0.45000
H864        H  0.45703859  0.57394628  0.71291953     0.36400
C865        C  0.99296886  0.23346164  0.92250483    -0.27800
C866        C  0.01593799  0.21570127  0.91527586     0.01800
C867        C  0.03438008  0.22381919  0.89284761     0.29900
C868        C  0.02836134  0.24793557  0.87649717    -0.19600
C869        C  0.00430001  0.26466054  0.88244625    -0.29000
C870        C  0.98721606  0.25795704  0.90635668     0.43900
C871        C  0.01811398  0.18696956  0.92821970     0.05100
O872        O  0.05771865  0.20762400  0.88603293    -0.57500
H873        H  0.04228137  0.25331619  0.85871414     0.18000
O874        O  0.96405017  0.27429691  0.91325867    -0.64200
H875        H  0.97854586  0.22750005  0.93968455     0.16500
C876        C  0.01925513  0.18286127  0.95819063     0.28700
C877        C  0.01849409  0.15508974  0.96940035    -0.25100
C878        C  0.01624601  0.13127926  0.95094497    -0.24400
C879        C  0.01639977  0.13551646  0.92095448     0.40200
C880        C  0.01720339  0.16308826  0.90990389    -0.26900
O881        O  0.02031206  0.20578997  0.97665363    -0.58800
H882        H  0.01835054  0.15223007  0.99249361     0.15800
O883        O  0.01484511  0.11283324  0.90215384    -0.60200
H884        H  0.01611639  0.16584467  0.88681281     0.14300
H885        H  0.94803165  0.26670087  0.90121941     0.46100
H886        H  0.04088623  0.21132991  0.97790614     0.41500
H887        H  0.03484098  0.10611951  0.90026223     0.45000
H888        H  0.07367948  0.21558402  0.89791699     0.36400
C889        C  0.03341940  0.84929770  0.92215190    -0.27800
C890        C  0.01226455  0.83945111  0.90264182     0.01800
C891        C  0.99234435  0.85910439  0.89163954     0.29900
C892        C  0.99255735  0.88728837  0.90157245    -0.19600
C893        C  0.01309325  0.89687740  0.92167669    -0.29000
C894        C  0.03409170  0.87785572  0.93145015     0.43900
C895        C  0.01092883  0.80887088  0.89369095     0.05100
O896        O  0.97226438  0.85095006  0.87141704    -0.57500
H897        H  0.97615975  0.90162934  0.89400019     0.18000
O898        O  0.05435497  0.88652375  0.95125895    -0.64200
H899        H  0.04890077  0.83462945  0.93095722     0.16500
C900        C  0.03555662  0.79464396  0.88390777     0.28700
C901        C  0.03309043  0.76698623  0.87250755    -0.25100
C902        C  0.00628543  0.75321671  0.87039858    -0.24400
C903        C  0.98180495  0.76702653  0.88065317     0.40200
C904        C  0.98432829  0.79429846  0.89291455    -0.26900
O905        O  0.06185160  0.80811811  0.88376674    -0.58800
H906        H  0.05189142  0.75695717  0.86359451     0.15800
O907        O  0.95509610  0.75487505  0.87704945    -0.60200
H908        H  0.96516534  0.80463086  0.90062045     0.14300
H909        H  0.04534259  0.88349080  0.97026760     0.46100
H910        H  0.06170956  0.82034367  0.86643661     0.41500
H911        H  0.94920033  0.75969529  0.85715420     0.45000
H912        H  0.98259953  0.85109365  0.85285255     0.36400
C913        C  0.07256358  0.36168338  0.91337007    -0.27800
C914        C  0.08151998  0.38739850  0.90085548     0.01800
C915        C  0.06902624  0.39634237  0.87495008     0.29900
C916        C  0.04825468  0.37925993  0.86145274    -0.19600
C917        C  0.03969276  0.35310904  0.87347181    -0.29000
C918        C  0.05166641  0.34450476  0.89988080     0.43900
C919        C  0.10453944  0.40451525  0.91439566     0.05100
O920        O  0.07725953  0.42161064  0.86251117    -0.57500
H921        H  0.03882837  0.38647029  0.84146822     0.18000
O922        O  0.04460453  0.31855995  0.91161914    -0.64200
H923        H  0.08234292  0.35457667  0.93322645     0.16500
C924        C  0.10073114  0.41707318  0.94154622     0.28700
C925        C  0.12254335  0.43413706  0.95348096    -0.25100
C926        C  0.14837955  0.43869191  0.93865839    -0.24400
C927        C  0.15203085  0.42611920  0.91133979     0.40200
C928        C  0.13020648  0.40903619  0.89949294    -0.26900
O929        O  0.07534092  0.41372868  0.95596674    -0.58800
H930        H  0.11930881  0.44362507  0.97449874     0.15800
O931        O  0.17655174  0.43076522  0.89580848    -0.60200
H932        H  0.13317387  0.39946736  0.87846807     0.14300
H933        H  0.03364169  0.32303212  0.92925431     0.46100
H934        H  0.07865867  0.39797741  0.96969414     0.41500
H935        H  0.17361643  0.44924708  0.88597619     0.45000
H936        H  0.06620956  0.43653588  0.87262897     0.36400
C937        C  0.09848421  0.42980849  0.08062053    -0.27800
C938        C  0.10277572  0.40020404  0.08230715     0.01800
C939        C  0.12874929  0.38893086  0.07216887     0.29900
C940        C  0.15029761  0.40722949  0.06170135    -0.19600
C941        C  0.14636711  0.43688569  0.06068540    -0.29000
C942        C  0.11999106  0.44809575  0.06995069     0.43900
C943        C  0.08067701  0.38144146  0.09588939     0.05100
O944        O  0.13265748  0.35992009  0.07124654    -0.57500
H945        H  0.17000775  0.39808141  0.05381998     0.18000
O946        O  0.11520254  0.47692238  0.06923274    -0.64200
H947        H  0.07864504  0.43886432  0.08827204     0.16500
C948        C  0.08789574  0.36411049  0.11941046     0.28700
C949        C  0.06690197  0.34707311  0.13252814    -0.25100
C950        C  0.03817780  0.34730139  0.12318649    -0.24400
C951        C  0.03083631  0.36493425  0.09976794     0.40200
C952        C  0.05204073  0.38161332  0.08622787    -0.26900
O953        O  0.11503524  0.36526723  0.13102356    -0.58800
H954        H  0.07316426  0.33398208  0.15056371     0.15800
O955        O  0.00292885  0.36706573  0.09063384    -0.60200
H956        H  0.04600707  0.39511103  0.06840751     0.14300
H957        H  0.12256112  0.48440148  0.08789652     0.46100
H958        H  0.12284040  0.34578657  0.12869802     0.41500
H959        H  0.99473503  0.38273150  0.10230555     0.45000
H960        H  0.14961077  0.35622397  0.08360549     0.36400
C961        C  0.10286141  0.60138690  0.06351095    -0.27800
C962        C  0.10918148  0.61562500  0.08932525     0.01800
C963        C  0.13633864  0.61302278  0.10212085     0.29900
C964        C  0.15697194  0.59604717  0.08910940    -0.19600
C965        C  0.15079315  0.58142631  0.06329461    -0.29000
C966        C  0.12342688  0.58437389  0.05038231     0.43900
C967        C  0.08746982  0.63367208  0.10261155     0.05100
O968        O  0.14284122  0.62697030  0.12738650    -0.57500
H969        H  0.17776824  0.59415733  0.09940437     0.18000
O970        O  0.11656142  0.57098046  0.02488714    -0.64200
H971        H  0.08193471  0.60353929  0.05352503     0.16500
C972        C  0.08086503  0.66028785  0.09071826     0.28700
C973        C  0.06061000  0.67753780  0.10398059    -0.25100
C974        C  0.04686955  0.66845943  0.12907353    -0.24400
C975        C  0.05326933  0.64158799  0.14078458     0.40200
C976        C  0.07366569  0.62441716  0.12757817    -0.26900
O977        O  0.09477731  0.66992007  0.06669565    -0.58800
H978        H  0.05573592  0.69813750  0.09478368     0.15800
O979        O  0.03932433  0.63168960  0.16468291    -0.60200
H980        H  0.07858837  0.60377026  0.13664132     0.14300
H981        H  0.12181695  0.58484594  0.00971250     0.46100
H982        H  0.08259719  0.66354680  0.05026408     0.41500
H983        H  0.02103648  0.62326289  0.15739414     0.45000
H984        H  0.14846779  0.64662578  0.12170110     0.50000
C985        C  0.10349342  0.58511440  0.91587812    -0.27800
C986        C  0.10994471  0.61301421  0.90677544     0.01800
C987        C  0.13762437  0.62437034  0.91248228     0.29900
C988        C  0.15811628  0.60797476  0.92687050    -0.19600
C989        C  0.15165991  0.58004107  0.93592831    -0.29000
C990        C  0.12402939  0.56864342  0.93008430     0.43900
C991        C  0.08774876  0.63010718  0.89151414     0.05100
O992        O  0.14498197  0.65147271  0.90398298    -0.57500
H993        H  0.17911994  0.61728793  0.93110179     0.18000
O994        O  0.11683069  0.54129890  0.93791491    -0.64200
H995        H  0.08230304  0.57603615  0.91218460     0.16500
C996        C  0.07205420  0.61874609  0.86791747     0.28700
C997        C  0.05197994  0.63563048  0.85345148    -0.25100
C998        C  0.04689198  0.66381506  0.86227472    -0.24400
C999        C  0.06245151  0.67516171  0.88579761     0.40200
C1000       C  0.08239221  0.65829818  0.90037792    -0.26900
O1001       O  0.07705051  0.59159378  0.85805793    -0.58800
H1002       H  0.04019087  0.62658011  0.83535603     0.15800
O1003       O  0.05892715  0.70298930  0.89423625    -0.60200
H1004       H  0.09383843  0.66740794  0.91864688     0.14300
H1005       H  0.12324475  0.52903969  0.92178620     0.46100
H1006       H  0.05975259  0.58025443  0.86327145     0.41500
H1007       H  0.07450637  0.71379983  0.88456685     0.45000
H1008       H  0.15293091  0.64921025  0.88439741     0.36400
C1009       C  0.35456552  0.41013730  0.89521901    -0.27800
C1010       C  0.38336463  0.41835050  0.89911284     0.01800
C1011       C  0.39047391  0.43877157  0.92036292     0.29900
C1012       C  0.36883829  0.45130586  0.93672504    -0.19600
C1013       C  0.33981453  0.44350491  0.93267602    -0.29000
C1014       C  0.33293111  0.42213018  0.91200223     0.43900
C1015       C  0.40574617  0.40536992  0.88086164     0.05100
O1016       O  0.41840763  0.44759471  0.92433792    -0.57500
H1017       H  0.37494908  0.46748757  0.95241164     0.18000
O1018       O  0.30519687  0.41281408  0.90776139    -0.64200
H1019       H  0.34885731  0.39408136  0.87923722     0.16500
C1020       C  0.42837432  0.38987349  0.89315672     0.28700
C1021       C  0.44876045  0.37704845  0.87551454    -0.25100
C1022       C  0.44676970  0.37898758  0.84549596    -0.24400
C1023       C  0.42403475  0.39420222  0.83312976     0.40200
C1024       C  0.40382819  0.40744472  0.85079481    -0.26900
O1025       O  0.43013478  0.38618453  0.92232896    -0.58800
H1026       H  0.46571670  0.36471620  0.88526759     0.15800
O1027       O  0.42059349  0.39520413  0.80389298    -0.60200
H1028       H  0.38629663  0.41893876  0.84101029     0.14300
H1029       H  0.30250675  0.39682779  0.92141366     0.46100
H1030       H  0.41711600  0.36983409  0.92649948     0.41500
H1031       H  0.41068753  0.37705120  0.79855607     0.45000
H1032       H  0.42425875  0.43983377  0.94324978     0.36400
C1033       C  0.38965624  0.57378935  0.91186568    -0.27800
C1034       C  0.38236802  0.59807257  0.89602847     0.01800
C1035       C  0.35468131  0.60935484  0.89864594     0.29900
C1036       C  0.33471528  0.59626524  0.91670276    -0.19600
C1037       C  0.34182721  0.57180311  0.93252155    -0.29000
C1038       C  0.36972332  0.56064836  0.92999912     0.43900
C1039       C  0.40396487  0.61177736  0.87726273     0.05100
O1040       O  0.34693749  0.63326564  0.88374027    -0.57500
H1041       H  0.31354605  0.60541194  0.91830234     0.18000
O1042       O  0.37768781  0.53666552  0.94466795    -0.64200
H1043       H  0.41081549  0.56471296  0.90984231     0.16500
C1044       C  0.43075830  0.62070423  0.88849752     0.28700
C1045       C  0.45065182  0.63434804  0.87073793    -0.25100
C1046       C  0.44417201  0.63923947  0.84180284    -0.24400
C1047       C  0.41772820  0.62992899  0.83029052     0.40200
C1048       C  0.39773173  0.61629707  0.84804137    -0.26900
O1049       O  0.43702119  0.61754406  0.91714614    -0.58800
H1050       H  0.47098296  0.64167901  0.87970558     0.15800
O1051       O  0.41109783  0.63445707  0.80192871    -0.60200
H1052       H  0.37732718  0.60925995  0.83903854     0.14300
H1053       H  0.37222874  0.52041539  0.93191085     0.46100
H1054       H  0.45087722  0.60167198  0.91806791     0.41500
H1055       H  0.42142115  0.61945888  0.79114876     0.45000
H1056       H  0.35270751  0.64959561  0.89625504     0.36400
C1057       C  0.36192703  0.61478126  0.09904723    -0.27800
C1058       C  0.38541154  0.59894045  0.10896277     0.01800
C1059       C  0.38704232  0.56983747  0.10121644     0.29900
C1060       C  0.36555625  0.55709518  0.08402405    -0.19600
C1061       C  0.34194002  0.57283894  0.07442153    -0.29000
C1062       C  0.34037807  0.60200344  0.08193721     0.43900
C1063       C  0.40822978  0.61306017  0.12694148     0.05100
O1064       O  0.40966019  0.55363353  0.11018328    -0.57500
H1065       H  0.36716861  0.53465627  0.07851097     0.18000
O1066       O  0.31810855  0.61834801  0.07235565    -0.64200
H1067       H  0.36020443  0.63716555  0.10472447     0.16500
C1068       C  0.42182133  0.63844216  0.11782033     0.28700
C1069       C  0.44244055  0.65203696  0.13534353    -0.25100
C1070       C  0.45074992  0.64037759  0.16187212    -0.24400
C1071       C  0.43820049  0.61426791  0.17041115     0.40200
C1072       C  0.41672927  0.60114330  0.15330652    -0.26900
O1073       O  0.41552057  0.64989295  0.09149879    -0.58800
H1074       H  0.45247858  0.67157130  0.12780582     0.15800
O1075       O  0.44591604  0.60194568  0.19589980    -0.60200
H1076       H  0.40658383  0.58163658  0.16076445     0.14300
H1077       H  0.32359590  0.62426132  0.05268583     0.46100
H1078       H  0.42859639  0.64032492  0.07784817     0.41500
H1079       H  0.45826370  0.58568971  0.19051689     0.45000
H1080       H  0.42505525  0.55724929  0.09600499     0.36400
C1081       C  0.35657668  0.42219655  0.11726561    -0.27800
C1082       C  0.38363331  0.41842066  0.10483080     0.01800
C1083       C  0.38838519  0.42787703  0.07659914     0.29900
C1084       C  0.36629559  0.44086361  0.06126185    -0.19600
C1085       C  0.33912106  0.44469588  0.07359584    -0.29000
C1086       C  0.33444293  0.43533230  0.10197604     0.43900
C1087       C  0.40685171  0.40488662  0.12156193     0.05100
O1088       O  0.41461502  0.42471329  0.06383822    -0.57500
H1089       H  0.37048073  0.44787428  0.03951964     0.18000
O1090       O  0.30853023  0.43922054  0.11515115    -0.64200
H1091       H  0.35258969  0.41490845  0.13894716     0.16500
C1092       C  0.41562113  0.41618159  0.14836000     0.28700
C1093       C  0.43766855  0.40320657  0.16382383    -0.25100
C1094       C  0.45103932  0.37875209  0.15310284    -0.24400
C1095       C  0.44247254  0.36755525  0.12613922     0.40200
C1096       C  0.42046863  0.38059502  0.11062407    -0.26900
O1097       O  0.40346280  0.44052314  0.15907547    -0.58800
H1098       H  0.44405311  0.41209734  0.18448437     0.15800
O1099       O  0.45569836  0.34418718  0.11456160    -0.60200
H1100       H  0.41395019  0.37168597  0.09001186     0.14300
H1101       H  0.31059734  0.45752236  0.12585761     0.46100
H1102       H  0.39061258  0.43399958  0.17469072     0.41500
H1103       H  0.47248363  0.35197416  0.10406659     0.45000
H1104       H  0.42649518  0.44100375  0.07100304     0.36400
C1105       C  0.63636407  0.43176959  0.11337364    -0.27800
C1106       C  0.61098375  0.42050045  0.10131601     0.01800
C1107       C  0.60629761  0.42260950  0.07143413     0.29900
C1108       C  0.62657207  0.43641344  0.05420829    -0.19600
C1109       C  0.65208722  0.44727511  0.06628286    -0.29000
C1110       C  0.65696184  0.44480892  0.09610161     0.43900
C1111       C  0.58932470  0.40726545  0.12028063     0.05100
O1112       O  0.58220367  0.41086094  0.05882232    -0.57500
H1113       H  0.62270789  0.43796481  0.03128259     0.18000
O1114       O  0.68163339  0.45538068  0.10867274    -0.64200
H1115       H  0.64009425  0.43077687  0.13634927     0.16500
C1116       C  0.59694445  0.38598402  0.14001780     0.28700
C1117       C  0.57622467  0.37444850  0.15831894    -0.25100
C1118       C  0.54751270  0.38324638  0.15684801    -0.24400
C1119       C  0.53990328  0.40425944  0.13662326     0.40200
C1120       C  0.56084846  0.41642921  0.11901696    -0.26900
O1121       O  0.62423484  0.37530865  0.14050967    -0.58800
H1122       H  0.58267769  0.35824915  0.17347538     0.15800
O1123       O  0.51199166  0.41241142  0.13295346    -0.60200
H1124       H  0.55470513  0.43290911  0.10401931     0.14300
H1125       H  0.67839724  0.47612505  0.11128774     0.46100
H1126       H  0.63301569  0.38250715  0.15866809     0.41500
H1127       H  0.50423515  0.39991765  0.11738866     0.45000
H1128       H  0.58746422  0.39097344  0.05389789     0.36400
C1129       C  0.63670534  0.59515781  0.11474310    -0.27800
C1130       C  0.60822843  0.59629248  0.10495105     0.01800
C1131       C  0.60124539  0.58443555  0.07789298     0.29900
C1132       C  0.62262558  0.57236121  0.06076462    -0.19600
C1133       C  0.65140928  0.57178225  0.07008475    -0.29000
C1134       C  0.65821210  0.58317573  0.09763043     0.43900
C1135       C  0.58624859  0.61117267  0.12238263     0.05100
O1136       O  0.57350183  0.58462806  0.06792743    -0.57500
H1137       H  0.61658817  0.56363468  0.03994583     0.18000
O1138       O  0.68561179  0.58206724  0.10847473    -0.64200
H1139       H  0.64242650  0.60412152  0.13555923     0.16500
C1140       C  0.57902924  0.60199307  0.15022210     0.28700
C1141       C  0.55867648  0.61698153  0.16634151    -0.25100
C1142       C  0.54553296  0.64147316  0.15525666    -0.24400
C1143       C  0.55240572  0.65028282  0.12717715     0.40200
C1144       C  0.57254938  0.63515469  0.11102322    -0.26900
O1145       O  0.59102165  0.57785314  0.16142500    -0.58800
H1146       H  0.55348384  0.60966118  0.18775644     0.15800
O1147       O  0.53849272  0.67277863  0.11479631    -0.60200
H1148       H  0.57764313  0.64230821  0.08952626     0.14300
H1149       H  0.69390773  0.60141960  0.10546008     0.46100
H1150       H  0.60641332  0.58481813  0.17460528     0.41500
H1151       H  0.55294263  0.68847426  0.11395308     0.45000
H1152       H  0.56442972  0.56710933  0.07582288     0.36400
C1153       C  0.57625328  0.60841631  0.85176874    -0.27800
C1154       C  0.58187341  0.61761870  0.88000015     0.01800
C1155       C  0.56546329  0.63970462  0.89191847     0.29900
C1156       C  0.54446531  0.65302376  0.87522158    -0.19600
C1157       C  0.53893727  0.64392738  0.84692536    -0.29000
C1158       C  0.55472900  0.62116695  0.83534689     0.43900
C1159       C  0.60526532  0.60429714  0.89659374     0.05100
O1160       O  0.57047877  0.64899000  0.91952997    -0.57500
H1161       H  0.53222989  0.67026926  0.88449650     0.18000
O1162       O  0.54965192  0.61151833  0.80787086    -0.64200
H1163       H  0.58860594  0.59126101  0.84247761     0.16500
C1164       C  0.59930435  0.58723455  0.92056902     0.28700
C1165       C  0.62173337  0.57447987  0.93570670    -0.25100
C1166       C  0.65052640  0.57815198  0.92720069    -0.24400
C1167       C  0.65634969  0.59550084  0.90303964     0.40200
C1168       C  0.63378821  0.60830060  0.88800457    -0.26900
O1169       O  0.57154632  0.58261250  0.92916016    -0.58800
H1170       H  0.61635484  0.56138049  0.95405057     0.15800
O1171       O  0.68388757  0.60022784  0.89384191    -0.60200
H1172       H  0.63857210  0.62144525  0.86950918     0.14300
H1173       H  0.56214019  0.62346430  0.79551332     0.46100
H1174       H  0.56586514  0.56391057  0.92061323     0.41500
H1175       H  0.68719325  0.58542361  0.87893035     0.45000
H1176       H  0.55471206  0.64056656  0.93105941     0.36400
C1177       C  0.59030084  0.39553074  0.84137106    -0.27800
C1178       C  0.58434055  0.40775481  0.86838161     0.01800
C1179       C  0.55596196  0.40617826  0.87878379     0.29900
C1180       C  0.53446072  0.39221014  0.86270399    -0.19600
C1181       C  0.54070909  0.37920462  0.83635067    -0.29000
C1182       C  0.56872761  0.38124236  0.82545606     0.43900
C1183       C  0.60762828  0.42174152  0.88585385     0.05100
O1184       O  0.54912614  0.41750716  0.90507948    -0.57500
H1185       H  0.51299260  0.39064515  0.87136434     0.18000
O1186       O  0.57525631  0.36909507  0.79945320    -0.64200
H1187       H  0.61172781  0.39700958  0.83259952     0.16500
C1188       C  0.63376182  0.40788386  0.89152569     0.28700
C1189       C  0.65457105  0.42093948  0.90939106    -0.25100
C1190       C  0.64984520  0.44783899  0.92199529    -0.24400
C1191       C  0.62387745  0.46183788  0.91592770     0.40200
C1192       C  0.60324094  0.44889762  0.89794848    -0.26900
O1193       O  0.63856607  0.38097044  0.88091596    -0.58800
H1194       H  0.67430885  0.40972858  0.91374549     0.15800
O1195       O  0.61847240  0.48837198  0.92716791    -0.60200
H1196       H  0.58362818  0.46023339  0.89340874     0.14300
H1197       H  0.57277782  0.38455062  0.78520480     0.46100
H1198       H  0.65323528  0.38348142  0.86575733     0.41500
H1199       H  0.62704998  0.50208501  0.91341015     0.45000
H1200       H  0.55239973  0.40192757  0.91901481     0.36400
C1201       C  0.85635469  0.41055390  0.09919807    -0.27800
C1202       C  0.88115073  0.40312671  0.08410730     0.01800
C1203       C  0.88549372  0.41400775  0.05633982     0.29900
C1204       C  0.86535130  0.43237994  0.04417449    -0.19600
C1205       C  0.84046127  0.43983203  0.05922226    -0.29000
C1206       C  0.83606649  0.42868029  0.08699929     0.43900
C1207       C  0.90283028  0.38497250  0.09813542     0.05100
O1208       O  0.90935076  0.40681767  0.04093673    -0.57500
H1209       H  0.86892359  0.44034404  0.02265724     0.18000
O1210       O  0.81206658  0.43536507  0.10245324    -0.64200
H1211       H  0.85271470  0.40221062  0.12055815     0.16500
C1212       C  0.91649409  0.39428013  0.12358203     0.28700
C1213       C  0.93638998  0.37683295  0.13721846    -0.25100
C1214       C  0.94289147  0.34975927  0.12604157    -0.24400
C1215       C  0.92945944  0.34051723  0.10031031     0.40200
C1216       C  0.90964406  0.35817916  0.08647711    -0.26900
O1217       O  0.91126117  0.42089628  0.13470868    -0.58800
H1218       H  0.94706424  0.38472522  0.15648855     0.15800
O1219       O  0.93505651  0.31416272  0.08876958    -0.60200
H1220       H  0.89918253  0.35076925  0.06690070     0.14300
H1221       H  0.81753354  0.45252959  0.11392499     0.46100
H1222       H  0.89732836  0.41770721  0.15042002     0.41500
H1223       H  0.92309290  0.30051447  0.09984065     0.45000
H1224       H  0.92439317  0.42080872  0.04696905     0.36400
C1225       C  0.85688971  0.39681750  0.90841698    -0.27800
C1226       C  0.88536703  0.40671397  0.90838499     0.01800
C1227       C  0.89174644  0.43432799  0.91881108     0.29900
C1228       C  0.86981751  0.45136178  0.92977788    -0.19600
C1229       C  0.84119484  0.44135042  0.93035508    -0.29000
C1230       C  0.83486340  0.41389598  0.91896983     0.43900
C1231       C  0.90795382  0.38815072  0.89660989     0.05100
O1232       O  0.91939339  0.44470031  0.91870085    -0.57500
H1233       H  0.87533927  0.47240142  0.93807692     0.18000
O1234       O  0.80744365  0.40296073  0.91905057    -0.64200
H1235       H  0.85168184  0.37571263  0.90006617     0.16500
C1236       C  0.91392016  0.36153974  0.90909347     0.28700
C1237       C  0.93341271  0.34308927  0.89595653    -0.25100
C1238       C  0.94687956  0.35073067  0.87020878    -0.24400
C1239       C  0.94216166  0.37812981  0.85874870     0.40200
C1240       C  0.92260815  0.39646005  0.87177574    -0.26900
O1241       O  0.90128382  0.35376460  0.93447026    -0.58800
H1242       H  0.93761813  0.32263189  0.90566321     0.15800
O1243       O  0.95685976  0.38739112  0.83504631    -0.60200
H1244       H  0.91855401  0.41708232  0.86223387     0.14300
H1245       H  0.79957235  0.40711558  0.89968792     0.46100
H1246       H  0.88585049  0.33996711  0.92902448     0.41500
H1247       H  0.97565143  0.39440801  0.84253900     0.45000
H1248       H  0.92747674  0.43957705  0.93772337     0.36400
C1249       C  0.86057267  0.60929101  0.89078127    -0.27800
C1250       C  0.88695195  0.61425218  0.90479136     0.01800
C1251       C  0.89166645  0.60195698  0.93193433     0.29900
C1252       C  0.86997908  0.58556665  0.94488798    -0.19600
C1253       C  0.84333161  0.58096361  0.93108119    -0.29000
C1254       C  0.83900130  0.59265353  0.90353137     0.43900
C1255       C  0.90941303  0.63198380  0.89064277     0.05100
O1256       O  0.91747609  0.60565293  0.94587570    -0.57500
H1257       H  0.87396825  0.57665810  0.96595242     0.18000
O1258       O  0.81389262  0.58771231  0.88868139    -0.64200
H1259       H  0.85664175  0.61842920  0.86980588     0.16500
C1260       C  0.91896706  0.62514563  0.86285221     0.28700
C1261       C  0.93948899  0.64242185  0.84942423    -0.25100
C1262       C  0.95097700  0.66693374  0.86313657    -0.24400
C1263       C  0.94141699  0.67379093  0.89103223     0.40200
C1264       C  0.92097285  0.65623389  0.90462004    -0.26900
O1265       O  0.90860499  0.60135814  0.84869074    -0.58800
H1266       H  0.94682190  0.63617983  0.82828890     0.15800
O1267       O  0.95142793  0.69781204  0.90500987    -0.60200
H1268       H  0.91364278  0.66195510  0.92591989     0.14300
H1269       H  0.81772256  0.57103026  0.87609626     0.46100
H1270       H  0.92083190  0.58547934  0.85529412     0.41500
H1271       H  0.93492218  0.71095018  0.90568304     0.45000
H1272       H  0.92921180  0.58917645  0.93982894     0.36400
C1273       C  0.85912085  0.61232268  0.09913963    -0.27800
C1274       C  0.88447019  0.61822310  0.08402080     0.01800
C1275       C  0.88809973  0.60617575  0.05645355     0.29900
C1276       C  0.86699031  0.58806839  0.04484779    -0.19600
C1277       C  0.84150206  0.58247784  0.05981525    -0.29000
C1278       C  0.83752009  0.59506992  0.08706473     0.43900
C1279       C  0.90721402  0.63630717  0.09745363     0.05100
O1280       O  0.91199210  0.61226702  0.04043988    -0.57500
H1281       H  0.87023695  0.57906471  0.02362262     0.18000
O1282       O  0.81275290  0.59050234  0.10221292    -0.64200
H1283       H  0.85611411  0.62077390  0.12060525     0.16500
C1284       C  0.90060584  0.66210278  0.11164415     0.28700
C1285       C  0.92241153  0.67814140  0.12496093    -0.25100
C1286       C  0.95085128  0.66906799  0.12400856    -0.24400
C1287       C  0.95772451  0.64387082  0.10924141     0.40200
C1288       C  0.93587676  0.62734844  0.09663364    -0.26900
O1289       O  0.87313363  0.67231603  0.11168660    -0.58800
H1290       H  0.91715223  0.69790455  0.13585888     0.15800
O1291       O  0.98546188  0.63448144  0.10830649    -0.60200
H1292       H  0.94135845  0.60725806  0.08653944     0.14300
H1293       H  0.81717701  0.57473548  0.11559092     0.46100
H1294       H  0.86675412  0.67130975  0.13196530     0.41500
H1295       H  0.99265914  0.64011956  0.08911984     0.45000
H1296       H  0.90747697  0.63016313  0.03016119     0.36400
C1297       C  0.07446158  0.03674128  0.83682629    -0.27800
C1298       C  0.05716132  0.02785519  0.81359674     0.01800
C1299       C  0.02847677  0.01961096  0.81836125     0.29900
C1300       C  0.01761132  0.01964043  0.84634410    -0.19600
C1301       C  0.03539225  0.02721143  0.86969845    -0.29000
C1302       C  0.06379964  0.03627841  0.86478918     0.43900
C1303       C  0.07036946  0.02460206  0.78512460     0.05100
O1304       O  0.01136453  0.01033288  0.79601261    -0.57500
H1305       H  0.99576388  0.01240109  0.84997474     0.18000
O1306       O  0.08154937  0.04379238  0.88730251    -0.64200
H1307       H  0.09667014  0.04285379  0.83337590     0.16500
C1308       C  0.08148251  0.04842234  0.77047518     0.28700
C1309       C  0.09833522  0.04440619  0.74607755    -0.25100
C1310       C  0.10441146  0.01679304  0.73633203    -0.24400
C1311       C  0.09226294  0.99301735  0.75016511     0.40200
C1312       C  0.07506996  0.99703101  0.77432102    -0.26900
O1313       O  0.07646623  0.07558587  0.78026036    -0.58800
H1314       H  0.10802255  0.06278560  0.73574822     0.15800
O1315       O  0.09814069  0.96582313  0.74102871    -0.60200
H1316       H  0.06678530  0.97855692  0.78563627     0.14300
H1317       H  0.07832948  0.06446004  0.89050327     0.46100
H1318       H  0.09376140  0.08105594  0.79163714     0.41500
H1319       H  0.11579596  0.96040720  0.75155847     0.45000
H1320       H  0.00516998  0.02792638  0.78610937     0.36400
C1321       C  0.06656774  0.05287111  0.15548228    -0.27800
C1322       C  0.08298944  0.03044579  0.16659539     0.01800
C1323       C  0.09033871  0.00764213  0.14829545     0.29900
C1324       C  0.08010602  0.00669232  0.12005590    -0.19600
C1325       C  0.06298183  0.02858204  0.10905623    -0.29000
C1326       C  0.05662841  0.05208529  0.12687992     0.43900
C1327       C  0.09226914  0.03029615  0.19721904     0.05100
O1328       O  0.10717148  0.98583031  0.15796859    -0.57500
H1329       H  0.08512698  0.98836245  0.10680110     0.18000
O1330       O  0.03882097  0.07313605  0.11736985    -0.64200
H1331       H  0.06056692  0.07050166  0.16927262     0.16500
C1332       C  0.10876486  0.05292273  0.20905454     0.28700
C1333       C  0.12189002  0.04971442  0.23596563    -0.25100
C1334       C  0.11828440  0.02439866  0.25157678    -0.24400
C1335       C  0.09974419  0.00290034  0.24106996     0.40200
C1336       C  0.08692048  0.00589143  0.21399344    -0.26900
O1337       O  0.11420453  0.07716184  0.19351588    -0.58800
H1338       H  0.13596661  0.06652379  0.24414249     0.15800
O1339       O  0.09612230  0.97786932  0.25584258    -0.60200
H1340       H  0.07380668  0.98851579  0.20545299     0.14300
H1341       H  0.05178267  0.08847953  0.11033218     0.46100
H1342       H  0.10155748  0.09189333  0.20185562     0.41500
H1343       H  0.08062929  0.98168503  0.26980104     0.45000
H1344       H  0.12720200  0.99251004  0.15500950     0.36400
C1345       C  0.18684569  0.50550826  0.23526449    -0.27800
C1346       C  0.21533991  0.50952851  0.22665182     0.01800
C1347       C  0.23658177  0.51526166  0.24744259     0.29900
C1348       C  0.22934814  0.51660914  0.27644204    -0.19600
C1349       C  0.20098737  0.51129264  0.28564251    -0.29000
C1350       C  0.17950459  0.50673535  0.26435700     0.43900
C1351       C  0.22267470  0.50874182  0.19585599     0.05100
O1352       O  0.26462920  0.51954189  0.23961706    -0.57500
H1353       H  0.24633835  0.52237713  0.29124345     0.18000
O1354       O  0.15126929  0.50296425  0.27173213    -0.64200
H1355       H  0.17015671  0.50175052  0.21931782     0.16500
C1356       C  0.21696625  0.48430755  0.17900732     0.28700
C1357       C  0.22399084  0.48419512  0.14983589    -0.25100
C1358       C  0.23624269  0.50849930  0.13685489    -0.24400
C1359       C  0.24233826  0.53282919  0.15404262     0.40200
C1360       C  0.23563633  0.53271762  0.18327457    -0.26900
O1361       O  0.20519681  0.46022708  0.19106795    -0.58800
H1362       H  0.21908403  0.46520031  0.13723935     0.15800
O1363       O  0.25532581  0.55664091  0.14270860    -0.60200
H1364       H  0.24022739  0.55162669  0.19612909     0.14300
H1365       H  0.14309727  0.52240675  0.27200190     0.46100
H1366       H  0.18502066  0.45949146  0.18417359     0.41500
H1367       H  0.23961056  0.57036724  0.13948175     0.45000
H1368       H  0.27324170  0.50028285  0.23967959     0.36400
C1369       C  0.27052725  0.52458328  0.42039418    -0.27800
C1370       C  0.28052298  0.49683179  0.42483736     0.01800
C1371       C  0.26560188  0.47346242  0.41258885     0.29900
C1372       C  0.24151427  0.47811706  0.39526678    -0.19600
C1373       C  0.23208627  0.50592096  0.39000879    -0.29000
C1374       C  0.24643509  0.52926804  0.40295193     0.43900
C1375       C  0.30932842  0.49317314  0.43734220     0.05100
O1376       O  0.27522072  0.44617108  0.41638436    -0.57500
H1377       H  0.23120852  0.46012275  0.38449698     0.18000
O1378       O  0.23876957  0.55667448  0.39634506    -0.64200
H1379       H  0.28251597  0.54273769  0.42895465     0.16500
C1380       C  0.33282619  0.49005301  0.41888846     0.28700
C1381       C  0.36059399  0.48983521  0.43009991    -0.25100
C1382       C  0.36550640  0.49278878  0.45974186    -0.24400
C1383       C  0.34190679  0.49496469  0.47845439     0.40200
C1384       C  0.31391221  0.49526656  0.46711471    -0.26900
O1385       O  0.32886175  0.48812497  0.38969144    -0.58800
H1386       H  0.37847620  0.48805590  0.41544542     0.15800
O1387       O  0.34600982  0.49803250  0.50754934    -0.60200
H1388       H  0.29587456  0.49790751  0.48141877     0.14300
H1389       H  0.23395650  0.56588495  0.41492015     0.46100
H1390       H  0.32878819  0.50814484  0.38285627     0.41500
H1391       H  0.34537563  0.51889027  0.51130412     0.45000
H1392       H  0.28754029  0.44225660  0.39954928     0.36400
C1393       C  0.80237659  0.51603400  0.23151182    -0.27800
C1394       C  0.77498656  0.50923134  0.22068247     0.01800
C1395       C  0.75323784  0.50123007  0.23978617     0.29900
C1396       C  0.75888831  0.50002615  0.26916342    -0.19600
C1397       C  0.78605512  0.50774408  0.28067019    -0.29000
C1398       C  0.80806263  0.51523102  0.26115382     0.43900
C1399       C  0.76927925  0.50933058  0.18939274     0.05100
O1400       O  0.72623189  0.49423504  0.22990745    -0.57500
H1401       H  0.74156493  0.49224184  0.28219236     0.18000
O1402       O  0.83546134  0.52085586  0.27079120    -0.64200
H1403       H  0.81956892  0.52150146  0.21690377     0.16500
C1404       C  0.77373832  0.53406003  0.17299665     0.28700
C1405       C  0.76688558  0.53387594  0.14369996    -0.25100
C1406       C  0.75624747  0.50898971  0.13000997    -0.24400
C1407       C  0.75194033  0.48413185  0.14660149     0.40200
C1408       C  0.75832890  0.48455459  0.17599866    -0.26900
O1409       O  0.78389887  0.55877167  0.18560997    -0.58800
H1410       H  0.77040475  0.55327202  0.13161279     0.15800
O1411       O  0.74084572  0.45951300  0.13459946    -0.60200
H1412       H  0.75483618  0.46532989  0.18841637     0.14300
H1413       H  0.83876351  0.54154964  0.26753518     0.46100
H1414       H  0.80435491  0.56017400  0.17998115     0.41500
H1415       H  0.75752207  0.44687383  0.13179768     0.45000
H1416       H  0.71576934  0.51253563  0.22939102     0.36400
C1417       C  0.70523842  0.46586974  0.38933083    -0.27800
C1418       C  0.69415674  0.48780778  0.40641772     0.01800
C1419       C  0.71185869  0.51164522  0.41330370     0.29900
C1420       C  0.73918564  0.51445551  0.40090292    -0.19600
C1421       C  0.74888070  0.49386917  0.38146330    -0.29000
C1422       C  0.73233898  0.46877429  0.37685963     0.43900
C1423       C  0.66322914  0.48706143  0.41412577     0.05100
O1424       O  0.70226250  0.53247654  0.43164970    -0.57500
H1425       H  0.75175704  0.53374745  0.40470373     0.18000
O1426       O  0.74143427  0.44809067  0.35812237    -0.64200
H1427       H  0.69205745  0.44732560  0.38403350     0.16500
C1428       C  0.64488961  0.50868782  0.40446689     0.28700
C1429       C  0.61597763  0.50843560  0.41238208    -0.25100
C1430       C  0.60462309  0.48672773  0.42983840    -0.24400
C1431       C  0.62248760  0.46403707  0.43794922     0.40200
C1432       C  0.65158918  0.46430948  0.43006371    -0.26900
O1433       O  0.65496511  0.52978124  0.38665984    -0.58800
H1434       H  0.60253336  0.52591352  0.40561733     0.15800
O1435       O  0.61241314  0.44277683  0.45547001    -0.60200
H1436       H  0.66531754  0.44721112  0.43717492     0.14300
H1437       H  0.75529197  0.43661639  0.36927192     0.46100
H1438       H  0.65363532  0.54781663  0.39783609     0.41500
H1439       H  0.60284127  0.42878954  0.44237938     0.45000
H1440       H  0.70175240  0.55029531  0.42024725     0.36400
C1441       C  0.91077361  0.96150161  0.83897395    -0.27800
C1442       C  0.89583730  0.98474849  0.82768368     0.01800
C1443       C  0.88908570  0.00785664  0.84573228     0.29900
C1444       C  0.89892868  0.00844440  0.87415873    -0.19600
C1445       C  0.91546639  0.98606374  0.88509915    -0.29000
C1446       C  0.92060561  0.96204493  0.86755686     0.43900
C1447       C  0.88773614  0.98545870  0.79695033     0.05100
O1448       O  0.87291417  0.02998949  0.83564357    -0.57500
H1449       H  0.89455155  0.02699394  0.88739936     0.18000
O1450       O  0.93741012  0.94027487  0.87725564    -0.64200
H1451       H  0.91585707  0.94349820  0.82526941     0.16500
C1452       C  0.89969204  0.00621034  0.77858181     0.28700
C1453       C  0.88799790  0.01029955  0.75111991    -0.25100
C1454       C  0.86442597  0.99380817  0.74177830    -0.24400
C1455       C  0.85427462  0.97128635  0.75919629     0.40200
C1456       C  0.86590145  0.96729892  0.78663840    -0.26900
O1457       O  0.92175779  0.02361867  0.78793646    -0.58800
H1458       H  0.89617562  0.02748793  0.73787851     0.15800
O1459       O  0.83194941  0.95403188  0.75014504    -0.60200
H1460       H  0.85683207  0.95100823  0.80043884     0.14300
H1461       H  0.92374355  0.92543094  0.88405164     0.46100
H1462       H  0.93948940  0.01304659  0.78343743     0.41500
H1463       H  0.84109284  0.93697686  0.74164435     0.45000
H1464       H  0.88683174  0.04559165  0.83149072     0.36400
C1465       C  0.91159465  0.98869480  0.15665049    -0.27800
C1466       C  0.93141100  0.99117062  0.17933728     0.01800
C1467       C  0.96091418  0.99279371  0.17330948     0.29900
C1468       C  0.97023287  0.99213246  0.14468073    -0.19600
C1469       C  0.95026216  0.99063284  0.12195156    -0.29000
C1470       C  0.92076154  0.98861698  0.12816182     0.43900
C1471       C  0.92025121  0.99371979  0.20885966     0.05100
O1472       O  0.98066931  0.99485226  0.19521482    -0.57500
H1473       H  0.99297362  0.99391873  0.14021364     0.18000
O1474       O  0.90066078  0.98707291  0.10650819    -0.64200
H1475       H  0.88880588  0.98761576  0.16108092     0.16500
C1476       C  0.92016627  0.02042404  0.22297354     0.28700
C1477       C  0.90317958  0.02432306  0.24741217    -0.25100
C1478       C  0.88619521  0.00179917  0.25776407    -0.24400
C1479       C  0.88819933  0.97453728  0.24513751     0.40200
C1480       C  0.90498572  0.97067261  0.22066817    -0.26900
O1481       O  0.93483679  0.04331521  0.21177026    -0.58800
H1482       H  0.90164316  0.04540251  0.25697415     0.15800
O1483       O  0.87206644  0.95210688  0.25525631    -0.60200
H1484       H  0.90479391  0.95008014  0.20990512     0.14300
H1485       H  0.89878042  0.96646995  0.10169995     0.46100
H1486       H  0.92103742  0.05265937  0.19864263     0.41500
H1487       H  0.88368537  0.94388693  0.27102540     0.45000
H1488       H  0.98645567  0.01529630  0.19601706     0.36400
C1489       C  0.18334833  0.52877565  0.76902203    -0.27800
C1490       C  0.20869436  0.51529162  0.77759909     0.01800
C1491       C  0.22568691  0.50225941  0.75658087     0.29900
C1492       C  0.21753894  0.50309108  0.72768356    -0.19600
C1493       C  0.19337477  0.51847119  0.71839699    -0.29000
C1494       C  0.17546671  0.53037011  0.73982634     0.43900
C1495       C  0.21701952  0.51406064  0.80847830     0.05100
O1496       O  0.25068385  0.48894802  0.76399522    -0.57500
H1497       H  0.23084677  0.49210066  0.71228327     0.18000
O1498       O  0.14924809  0.54151381  0.73301882    -0.64200
H1499       H  0.16928485  0.53772126  0.78509614     0.16500
C1500       C  0.22016138  0.53906123  0.82516571     0.28700
C1501       C  0.22890715  0.53734297  0.85396051    -0.25100
C1502       C  0.23414782  0.51078250  0.86702818    -0.24400
C1503       C  0.23115534  0.48574993  0.85005706     0.40200
C1504       C  0.22260827  0.48757926  0.82120530    -0.26900
O1505       O  0.21547319  0.56536479  0.81331642    -0.58800
H1506       H  0.23095221  0.55702622  0.86619507     0.15800
O1507       O  0.23583255  0.45926325  0.86144880    -0.60200
H1508       H  0.22007084  0.46809110  0.80872203     0.14300
H1509       H  0.15050035  0.56202126  0.73845698     0.46100
H1510       H  0.19620381  0.57100303  0.82007427     0.41500
H1511       H  0.25625218  0.45520059  0.85743534     0.45000
H1512       H  0.26554047  0.50430163  0.76430988     0.36400
C1513       C  0.34042736  0.51419076  0.59735472    -0.27800
C1514       C  0.32318059  0.53703211  0.58893296     0.01800
C1515       C  0.33608903  0.56019292  0.57439647     0.29900
C1516       C  0.36531336  0.55925894  0.56702886    -0.19600
C1517       C  0.38186300  0.53523639  0.57339784    -0.29000
C1518       C  0.36929608  0.51302911  0.58955756     0.43900
C1519       C  0.29217592  0.53639085  0.59661215     0.05100
O1520       O  0.32016697  0.58329843  0.56640642    -0.57500
H1521       H  0.37458803  0.57651735  0.55487604     0.18000
O1522       O  0.38517448  0.48997434  0.59785381    -0.64200
H1523       H  0.33138032  0.49685870  0.60982046     0.16500
C1524       C  0.27489516  0.51191855  0.59100564     0.28700
C1525       C  0.24743239  0.50947675  0.60305979    -0.25100
C1526       C  0.23696194  0.53102468  0.62095886    -0.24400
C1527       C  0.25334956  0.55627059  0.62494150     0.40200
C1528       C  0.28061002  0.55891506  0.61262307    -0.26900
O1529       O  0.28496602  0.49007188  0.57420351    -0.58800
H1530       H  0.23522879  0.48987061  0.60006357     0.15800
O1531       O  0.24323389  0.57804127  0.64180205    -0.60200
H1532       H  0.29344438  0.57785956  0.61722248     0.14300
H1533       H  0.37897096  0.47407041  0.58497295     0.46100
H1534       H  0.28819050  0.47391535  0.58748392     0.41500
H1535       H  0.25397005  0.57676903  0.66021442     0.45000
H1536       H  0.31419186  0.57934247  0.54626242     0.36400
C1537       C  0.76615257  0.49425910  0.75124843    -0.27800
C1538       C  0.78009818  0.51284924  0.77060389     0.01800
C1539       C  0.80212291  0.53089630  0.76065658     0.29900
C1540       C  0.80915348  0.53100782  0.73146176    -0.19600
C1541       C  0.79433538  0.51329116  0.71148368    -0.29000
C1542       C  0.77328199  0.49412707  0.72210314     0.43900
C1543       C  0.77203652  0.51253009  0.80130057     0.05100
O1544       O  0.81788985  0.54742959  0.77960198    -0.57500
H1545       H  0.82668404  0.54476324  0.72527079     0.18000
O1546       O  0.75910917  0.47544470  0.70397172    -0.64200
H1547       H  0.74950473  0.47983043  0.75876444     0.16500
C1548       C  0.76263575  0.53738885  0.81534543     0.28700
C1549       C  0.75577493  0.53662034  0.84456536    -0.25100
C1550       C  0.75777160  0.51112890  0.86027951    -0.24400
C1551       C  0.76656496  0.48602846  0.84577822     0.40200
C1552       C  0.77344815  0.48693926  0.81659707    -0.26900
O1553       O  0.75997661  0.56255463  0.80069553    -0.58800
H1554       H  0.74891622  0.55613571  0.85492107     0.15800
O1555       O  0.76894573  0.46048665  0.85983382    -0.60200
H1556       H  0.78047986  0.46761925  0.80596010     0.14300
H1557       H  0.76905446  0.45698663  0.70622146     0.46100
H1558       H  0.74145072  0.56084867  0.79018845     0.41500
H1559       H  0.78920085  0.45976034  0.86642986     0.45000
H1560       H  0.81232887  0.56741225  0.77568767     0.36400
C1561       C  0.72297230  0.51144391  0.57195327    -0.27800
C1562       C  0.70576477  0.53522734  0.57777454     0.01800
C1563       C  0.71501179  0.55523028  0.59870708     0.29900
C1564       C  0.73933363  0.54983102  0.61539802    -0.19600
C1565       C  0.75526965  0.52496509  0.61107478    -0.29000
C1566       C  0.74777184  0.50638418  0.58830137     0.43900
C1567       C  0.67636398  0.53666337  0.56542628     0.05100
O1568       O  0.69958481  0.57943800  0.60396854    -0.57500
H1569       H  0.74537249  0.56475902  0.63233943     0.18000
O1570       O  0.76347780  0.48237732  0.58296947    -0.64200
H1571       H  0.71622836  0.49579241  0.55597930     0.16500
C1572       C  0.67096299  0.53426318  0.53565967     0.28700
C1573       C  0.64256023  0.53298571  0.52536180    -0.25100
C1574       C  0.61939054  0.53328956  0.54454709    -0.24400
C1575       C  0.62488374  0.53662569  0.57418465     0.40200
C1576       C  0.65307989  0.53826305  0.58434742    -0.26900
O1577       O  0.69325498  0.53341825  0.51656841    -0.58800
H1578       H  0.63868197  0.53059439  0.50247592     0.15800
O1579       O  0.60282744  0.53772334  0.59354638    -0.60200
H1580       H  0.65677721  0.53980556  0.60732580     0.14300
H1581       H  0.75559742  0.46760361  0.59601262     0.46100
H1582       H  0.69373643  0.51340979  0.50947818     0.41500
H1583       H  0.59518417  0.55733569  0.59205975     0.45000
H1584       H  0.70689530  0.59369556  0.59005348     0.36400
C1585       C  0.01306221  0.27908964  0.31840640    -0.27800
C1586       C  0.98860251  0.29140710  0.30623283     0.01800
C1587       C  0.96424272  0.29542746  0.32351738     0.29900
C1588       C  0.96461720  0.28708365  0.35237143    -0.19600
C1589       C  0.98933825  0.27522604  0.36478368    -0.29000
C1590       C  0.01378981  0.27148399  0.34740531     0.43900
C1591       C  0.98867632  0.29945362  0.27539882     0.05100
O1592       O  0.94012768  0.30799506  0.31258325    -0.57500
H1593       H  0.94572418  0.29074959  0.36525776     0.18000
O1594       O  0.03844655  0.25995825  0.35831487    -0.64200
H1595       H  0.03180727  0.27530000  0.30534356     0.16500
C1596       C  0.01133699  0.31568248  0.26360469     0.28700
C1597       C  0.01188799  0.32136783  0.23409590    -0.25100
C1598       C  0.98984433  0.31125779  0.21563694    -0.24400
C1599       C  0.96654194  0.29605396  0.22798474     0.40200
C1600       C  0.96634165  0.28999305  0.25734239    -0.26900
O1601       O  0.03338985  0.32578831  0.28065854    -0.58800
H1602       H  0.03000320  0.33337528  0.22618342     0.15800
O1603       O  0.94447023  0.28560279  0.21115391    -0.60200
H1604       H  0.94890682  0.27716763  0.26588242     0.14300
H1605       H  0.05116288  0.27655381  0.36285940     0.46100
H1606       H  0.02556084  0.34260457  0.29085981     0.41500
H1607       H  0.92847269  0.29906893  0.21397297     0.45000
H1608       H  0.94321340  0.32879352  0.31560715     0.36400
C1609       C  0.97118476  0.28746820  0.67710671    -0.27800
C1610       C  0.99651516  0.28566916  0.69323880     0.01800
C1611       C  0.02190135  0.27699397  0.67958368     0.29900
C1612       C  0.02163456  0.27054230  0.65007835    -0.19600
C1613       C  0.99628579  0.27275381  0.63372620    -0.29000
C1614       C  0.97084358  0.28121961  0.64773663     0.43900
C1615       C  0.99594885  0.29327094  0.72421712     0.05100
O1616       O  0.04676531  0.27380412  0.69513822    -0.57500
H1617       H  0.04137215  0.26386668  0.64002899     0.18000
O1618       O  0.94569832  0.28485487  0.63279749    -0.64200
H1619       H  0.95157359  0.29439071  0.68725031     0.16500
C1620       C  0.01422982  0.31462752  0.73557848     0.28700
C1621       C  0.01365320  0.32121587  0.76492634    -0.25100
C1622       C  0.99464905  0.30697370  0.78371449    -0.24400
C1623       C  0.97476683  0.28713840  0.77158455     0.40200
C1624       C  0.97581876  0.28017617  0.74229942    -0.26900
O1625       O  0.03246079  0.32963154  0.71804935    -0.58800
H1626       H  0.02795642  0.33799523  0.77221882     0.15800
O1627       O  0.95467080  0.27375712  0.78839010    -0.60200
H1628       H  0.96093758  0.26429021  0.73370052     0.14300
H1629       H  0.93457216  0.26690251  0.63558724     0.46100
H1630       H  0.02155826  0.34665384  0.71201975     0.41500
H1631       H  0.93719976  0.28550837  0.78669132     0.45000
H1632       H  0.06022366  0.28864192  0.68790373     0.36400
C1633       C  0.85439712  0.41132325  0.36797813    -0.27800
C1634       C  0.87180846  0.41892309  0.39163599     0.01800
C1635       C  0.87236292  0.44764463  0.40100161     0.29900
C1636       C  0.85574325  0.46802389  0.38687923    -0.19600
C1637       C  0.83776911  0.46026187  0.36369877    -0.29000
C1638       C  0.83712499  0.43150206  0.35440630     0.43900
C1639       C  0.88894297  0.39671727  0.40655065     0.05100
O1640       O  0.88861125  0.45596781  0.42433519    -0.57500
H1641       H  0.85681432  0.48998410  0.39430179     0.18000
O1642       O  0.81905041  0.42256202  0.33269868    -0.64200
H1643       H  0.85389210  0.38950232  0.36012793     0.16500
C1644       C  0.87633649  0.37054526  0.41497896     0.28700
C1645       C  0.89292249  0.34992195  0.42885136    -0.25100
C1646       C  0.92207673  0.35502995  0.43505418    -0.24400
C1647       C  0.93461220  0.38130635  0.42684596     0.40200
C1648       C  0.91817625  0.40168896  0.41252007    -0.26900
O1649       O  0.84748179  0.36556451  0.41112623    -0.58800
H1650       H  0.88273111  0.33009193  0.43535818     0.15800
O1651       O  0.96299034  0.38727735  0.43247523    -0.60200
H1652       H  0.92842157  0.42144214  0.40587903     0.14300
H1653       H  0.80062426  0.41791187  0.34223425     0.46100
H1654       H  0.84597104  0.35052101  0.39607145     0.41500
H1655       H  0.97367805  0.37816263  0.41657965     0.45000
H1656       H  0.87609369  0.45281151  0.44120553     0.36400
C1657       C  0.84350102  0.41119202  0.61709092    -0.27800
C1658       C  0.86812407  0.41826967  0.60118373     0.01800
C1659       C  0.87555910  0.44735262  0.59766114     0.29900
C1660       C  0.85825366  0.46862875  0.60922182    -0.19600
C1661       C  0.83406935  0.46153006  0.62554453    -0.29000
C1662       C  0.82681192  0.43255284  0.62963425     0.43900
C1663       C  0.88617208  0.39546910  0.58850215     0.05100
O1664       O  0.90025029  0.45526729  0.58375960    -0.57500
H1665       H  0.86449523  0.49081034  0.60645988     0.18000
O1666       O  0.80362722  0.42486330  0.64600372    -0.64200
H1667       H  0.83721710  0.38904102  0.61988621     0.16500
C1668       C  0.89527565  0.37188384  0.60483905     0.28700
C1669       C  0.91286914  0.35118690  0.59241235    -0.25100
C1670       C  0.92241358  0.35406831  0.56400607    -0.24400
C1671       C  0.91337391  0.37763848  0.54773173     0.40200
C1672       C  0.89517124  0.39779548  0.55985227    -0.26900
O1673       O  0.88761926  0.36910035  0.63310941    -0.58800
H1674       H  0.91958437  0.33317969  0.60520385     0.15800
O1675       O  0.92187225  0.38102961  0.51975296    -0.60200
H1676       H  0.88803182  0.41538498  0.54671229     0.14300
H1677       H  0.78662944  0.42780958  0.63350019     0.46100
H1678       H  0.90044904  0.38248246  0.64386808     0.41500
H1679       H  0.90844174  0.36898285  0.50816639     0.45000
H1680       H  0.91583059  0.45296880  0.59814881     0.36400
C1681       C  0.10070739  0.37490229  0.59964850    -0.27800
C1682       C  0.10253900  0.40222269  0.58746181     0.01800
C1683       C  0.08671655  0.40764702  0.56221551     0.29900
C1684       C  0.06917284  0.38617442  0.54990535    -0.19600
C1685       C  0.06747934  0.35865772  0.56186463    -0.29000
C1686       C  0.08350735  0.35329790  0.58716348     0.43900
C1687       C  0.12009988  0.42512899  0.60187068     0.05100
O1688       O  0.08787680  0.43403459  0.54961357    -0.57500
H1689       H  0.05674550  0.39121484  0.53096960     0.18000
O1690       O  0.08226718  0.32715090  0.60025528    -0.64200
H1691       H  0.11270727  0.37026349  0.61904923     0.16500
C1692       C  0.11551692  0.43236638  0.63087442     0.28700
C1693       C  0.13178094  0.45418652  0.64406420    -0.25100
C1694       C  0.15347072  0.46910110  0.62912597    -0.24400
C1695       C  0.15832453  0.46146581  0.60010332     0.40200
C1696       C  0.14149333  0.43997744  0.58670372    -0.26900
O1697       O  0.09484120  0.41847868  0.64653696    -0.58800
H1698       H  0.12682368  0.45971809  0.66607808     0.15800
O1699       O  0.17979217  0.47429563  0.58467364    -0.60200
H1700       H  0.14560719  0.43447868  0.56446861     0.14300
H1701       H  0.06575265  0.32819569  0.61354406     0.46100
H1702       H  0.07683181  0.42881899  0.64254347     0.41500
H1703       H  0.19524519  0.45997780  0.58359078     0.45000
H1704       H  0.07226498  0.44503423  0.55866870     0.36400
C1705       C  0.13347595  0.43222252  0.40566528    -0.27800
C1706       C  0.10910835  0.42306390  0.39024780     0.01800
C1707       C  0.10325544  0.43487257  0.36316790     0.29900
C1708       C  0.12208645  0.45526630  0.35163914    -0.19600
C1709       C  0.14678841  0.46412812  0.36690058    -0.29000
C1710       C  0.15236658  0.45244443  0.39415455     0.43900
C1711       C  0.09019554  0.40111092  0.40298714     0.05100
O1712       O  0.07855342  0.42758758  0.34854193    -0.57500
H1713       H  0.11710976  0.46454289  0.33094820     0.18000
O1714       O  0.17640445  0.46028980  0.40955843    -0.64200
H1715       H  0.13815110  0.42325128  0.42657214     0.16500
C1716       C  0.08616011  0.37421579  0.38978290     0.28700
C1717       C  0.07004018  0.35296128  0.40358492    -0.25100
C1718       C  0.05828310  0.35798799  0.43088173    -0.24400
C1719       C  0.06268342  0.38496783  0.44404638     0.40200
C1720       C  0.07825031  0.40626424  0.43000067    -0.26900
O1721       O  0.09879371  0.36814571  0.36395265    -0.58800
H1722       H  0.06719390  0.33236092  0.39314975     0.15800
O1723       O  0.05336031  0.39029141  0.47139367    -0.60200
H1724       H  0.08178276  0.42667271  0.44065208     0.14300
H1725       H  0.18883359  0.44325881  0.40944423     0.46100
H1726       H  0.11859320  0.36228666  0.36886484     0.41500
H1727       H  0.06828880  0.38199459  0.48398537     0.45000
H1728       H  0.08472643  0.41529774  0.33234894     0.36400
C1729       C  0.12805511  0.09336305  0.61347419    -0.27800
C1730       C  0.10310530  0.10673784  0.62319298     0.01800
C1731       C  0.09111618  0.09839017  0.64958433     0.29900
C1732       C  0.10379546  0.07655540  0.66554150    -0.19600
C1733       C  0.12882385  0.06327235  0.65589453    -0.29000
C1734       C  0.14096286  0.07184375  0.62964520     0.43900
C1735       C  0.08905189  0.12832756  0.60488287     0.05100
O1736       O  0.06616385  0.11035805  0.65910570    -0.57500
H1737       H  0.09390460  0.06986861  0.68542441     0.18000
O1738       O  0.16481441  0.05862712  0.61908906    -0.64200
H1739       H  0.13734925  0.09943783  0.59308477     0.16500
C1740       C  0.08601995  0.15672636  0.61424986     0.28700
C1741       C  0.07278968  0.17667974  0.59639974    -0.25100
C1742       C  0.06193515  0.16875399  0.56913676    -0.24400
C1743       C  0.06478239  0.14010502  0.55996408     0.40200
C1744       C  0.07863303  0.12034723  0.57761200    -0.26900
O1745       O  0.09579014  0.16515371  0.64088644    -0.58800
H1746       H  0.07058861  0.19836772  0.60424878     0.15800
O1747       O  0.05462666  0.13121603  0.53363051    -0.60200
H1748       H  0.08083104  0.09851478  0.57016527     0.14300
H1749       H  0.15751737  0.04087018  0.60970881     0.46100
H1750       H  0.11471851  0.17436751  0.63746465     0.41500
H1751       H  0.03562538  0.12231315  0.53748268     0.45000
H1752       H  0.07189543  0.12277637  0.67556249     0.36400
C1753       C  0.89375682  0.14481446  0.59942064    -0.27800
C1754       C  0.91088783  0.12267525  0.60988804     0.01800
C1755       C  0.93976733  0.12133140  0.60103979     0.29900
C1756       C  0.95092801  0.14187613  0.58220434    -0.19600
C1757       C  0.93393348  0.16447052  0.57247716    -0.29000
C1758       C  0.90515316  0.16578419  0.58130876     0.43900
C1759       C  0.89799298  0.10072979  0.62914155     0.05100
O1760       O  0.95742408  0.10030263  0.61095930    -0.57500
H1761       H  0.97321493  0.14063099  0.57587191     0.18000
O1762       O  0.88763841  0.18687940  0.57143753    -0.64200
H1763       H  0.87130258  0.14580479  0.60516021     0.16500
C1764       C  0.88104456  0.10854639  0.65291326     0.28700
C1765       C  0.86642530  0.08755647  0.66866908    -0.25100
C1766       C  0.86895991  0.05849445  0.66164085    -0.24400
C1767       C  0.88706672  0.05061050  0.63884240     0.40200
C1768       C  0.90112613  0.07162151  0.62268522    -0.26900
O1769       O  0.87816988  0.13668448  0.66061169    -0.58800
H1770       H  0.85272931  0.09401273  0.68621866     0.15800
O1771       O  0.88926503  0.02260345  0.63051637    -0.60200
H1772       H  0.91358840  0.06510327  0.60425789     0.14300
H1773       H  0.88551682  0.20031891  0.58782157     0.46100
H1774       H  0.89533119  0.14128409  0.67255164     0.41500
H1775       H  0.90805923  0.01630543  0.63811371     0.45000
H1776       H  0.96316598  0.10645766  0.63062478     0.36400
C1777       C  0.92828682  0.11638830  0.40866313    -0.27800
C1778       C  0.90368581  0.12298831  0.39272853     0.01800
C1779       C  0.89187501  0.15036247  0.39508743     0.29900
C1780       C  0.90473786  0.17080629  0.41315227    -0.19600
C1781       C  0.92953402  0.16444049  0.42916047    -0.29000
C1782       C  0.94125960  0.13679749  0.42676709     0.43900
C1783       C  0.89027673  0.10112997  0.37382855     0.05100
O1784       O  0.86786590  0.15741782  0.37961577    -0.57500
H1785       H  0.89526132  0.19177333  0.41451100     0.18000
O1786       O  0.96553530  0.12948503  0.44168580    -0.64200
H1787       H  0.93745203  0.09528828  0.40705508     0.16500
C1788       C  0.90524032  0.08960250  0.35038762     0.28700
C1789       C  0.89212087  0.06877025  0.33288751    -0.25100
C1790       C  0.86387422  0.05961126  0.33811926    -0.24400
C1791       C  0.84886913  0.07130471  0.36157439     0.40200
C1792       C  0.86217840  0.09182355  0.37926973    -0.26900
O1793       O  0.93254163  0.09883359  0.34423319    -0.58800
H1794       H  0.90388013  0.06010818  0.31488560     0.15800
O1795       O  0.82179425  0.06175165  0.36828204    -0.60200
H1796       H  0.85061474  0.10034193  0.39748006     0.14300
H1797       H  0.98171068  0.13415627  0.42871298     0.46100
H1798       H  0.93004221  0.11561520  0.33159918     0.41500
H1799       H  0.80881318  0.07750563  0.36292785     0.45000
H1800       H  0.87492799  0.16222968  0.36015183     0.36400
C1801       C  0.07425817  0.11913009  0.42053431    -0.27800
C1802       C  0.08098825  0.12511094  0.39185942     0.01800
C1803       C  0.07393135  0.15185303  0.38032496     0.29900
C1804       C  0.06125532  0.17251900  0.39772964    -0.19600
C1805       C  0.05515371  0.16685552  0.42668224    -0.29000
C1806       C  0.06145552  0.13969238  0.43793618     0.43900
C1807       C  0.09621494  0.10362847  0.37450466     0.05100
O1808       O  0.07960222  0.15811607  0.35215466    -0.57500
H1809       H  0.05605392  0.19300296  0.38846586     0.18000
O1810       O  0.05559986  0.13307297  0.46598478    -0.64200
H1811       H  0.07912315  0.09844561  0.42952788     0.16500
C1812       C  0.12264774  0.09280301  0.38392350     0.28700
C1813       C  0.13692788  0.07263751  0.36722954    -0.25100
C1814       C  0.12531363  0.06301635  0.34091787    -0.24400
C1815       C  0.09897444  0.07421100  0.33134082     0.40200
C1816       C  0.08452981  0.09413054  0.34825435    -0.26900
O1817       O  0.13521209  0.10267766  0.40888462    -0.58800
H1818       H  0.15706681  0.06434066  0.37509721     0.15800
O1819       O  0.08742308  0.06646070  0.30522230    -0.60200
H1820       H  0.06419962  0.10234111  0.34076039     0.14300
H1821       H  0.07322622  0.13848283  0.47686480     0.46100
H1822       H  0.13198627  0.08736417  0.42317658     0.41500
H1823       H  0.09569853  0.08017474  0.29129290     0.45000
H1824       H  0.09964566  0.16545615  0.35209947     0.36400
C1825       C  0.96941396  0.73596255  0.25223146    -0.27800
C1826       C  0.99520968  0.74113718  0.26708560     0.01800
C1827       C  0.02129724  0.73826397  0.25234170     0.29900
C1828       C  0.02138734  0.72835810  0.22399872    -0.19600
C1829       C  0.99568032  0.72101220  0.20955088    -0.29000
C1830       C  0.96942022  0.72695003  0.22352956     0.43900
C1831       C  0.99488594  0.74745786  0.29835157     0.05100
O1832       O  0.04693380  0.74503355  0.26548882    -0.57500
H1833       H  0.04183058  0.72683478  0.21325089     0.18000
O1834       O  0.94354105  0.72454433  0.20952129    -0.64200
H1835       H  0.94907037  0.73856809  0.26299749     0.16500
C1836       C  0.97674549  0.76822627  0.31038920     0.28700
C1837       C  0.97581372  0.77199601  0.34030682    -0.25100
C1838       C  0.99336458  0.75575627  0.35839245    -0.24400
C1839       C  0.01175150  0.73539685  0.34627953     0.40200
C1840       C  0.01223370  0.73125768  0.31661545    -0.26900
O1841       O  0.95995642  0.78494446  0.29318225    -0.58800
H1842       H  0.96170870  0.78786584  0.34936647     0.15800
O1843       O  0.02883561  0.71882320  0.36335689    -0.60200
H1844       H  0.02581524  0.71476052  0.30789531     0.14300
H1845       H  0.94160209  0.74252461  0.19857027     0.46100
H1846       H  0.97263314  0.80096552  0.28717971     0.41500
H1847       H  0.01703047  0.70165676  0.36778300     0.45000
H1848       H  0.04960177  0.76585254  0.26254519     0.36400
C1849       C  0.97308988  0.73278624  0.73469346    -0.27800
C1850       C  0.99397089  0.72380174  0.71531566     0.01800
C1851       C  0.01615492  0.70617930  0.72507334     0.29900
C1852       C  0.01767140  0.69837082  0.75407497    -0.19600
C1853       C  0.99711685  0.70789909  0.77397719    -0.29000
C1854       C  0.97436324  0.72491603  0.76360311     0.43900
C1855       C  0.99270053  0.73360899  0.68514522     0.05100
O1856       O  0.03670570  0.69672101  0.70644853    -0.57500
H1857       H  0.03542741  0.68533456  0.76052066     0.18000
O1858       O  0.95392679  0.73517394  0.78195831    -0.64200
H1859       H  0.95600029  0.74655475  0.72750925     0.16500
C1860       C  0.96869310  0.72734067  0.66766513     0.28700
C1861       C  0.96779002  0.73704195  0.63926911    -0.25100
C1862       C  0.99077610  0.75292573  0.62771460    -0.24400
C1863       C  0.01460748  0.75958031  0.64552154     0.40200
C1864       C  0.01535076  0.75002161  0.67399000    -0.26900
O1865       O  0.94679048  0.71034043  0.67766599    -0.58800
H1866       H  0.94950753  0.73107296  0.62593590     0.15800
O1867       O  0.03706461  0.77582009  0.63549645    -0.60200
H1868       H  0.03371798  0.75543238  0.68743341     0.14300
H1869       H  0.93637659  0.72362915  0.77784674     0.46100
H1870       H  0.93119894  0.72363726  0.68272266     0.41500
H1871       H  0.05246309  0.76204838  0.63115451     0.45000
H1872       H  0.02905070  0.67837205  0.69866357     0.36400
C1873       C  0.13762415  0.59162245  0.40779949    -0.27800
C1874       C  0.11529610  0.60321949  0.39160281     0.01800
C1875       C  0.11062245  0.59380886  0.36321964     0.29900
C1876       C  0.12815896  0.57275634  0.35142481    -0.19600
C1877       C  0.15054163  0.56082829  0.36767239    -0.29000
C1878       C  0.15517140  0.57054513  0.39612565     0.43900
C1879       C  0.09714533  0.62528448  0.40462874     0.05100
O1880       O  0.08891844  0.60501097  0.34693595    -0.57500
H1881       H  0.12387486  0.56540527  0.32968094     0.18000
O1882       O  0.17767386  0.56073117  0.41222176    -0.64200
H1883       H  0.14160645  0.59913054  0.42956010     0.16500
C1884       C  0.07752743  0.61823971  0.42630377     0.28700
C1885       C  0.06072070  0.63952037  0.43870189    -0.25100
C1886       C  0.06374742  0.66829052  0.43037142    -0.24400
C1887       C  0.08420536  0.67523696  0.40903726     0.40200
C1888       C  0.10029091  0.65372281  0.39609119    -0.26900
O1889       O  0.07431919  0.59049604  0.43514613    -0.58800
H1890       H  0.04556250  0.63341273  0.45517721     0.15800
O1891       O  0.08875225  0.70290084  0.40051477    -0.60200
H1892       H  0.11574298  0.65933902  0.37969688     0.14300
H1893       H  0.16888772  0.55012615  0.42839891     0.46100
H1894       H  0.08762001  0.58858641  0.45172768     0.41500
H1895       H  0.10466160  0.71019826  0.41289952     0.45000
H1896       H  0.07239288  0.59172671  0.34941542     0.36400
C1897       C  0.06797425  0.62406699  0.58150437    -0.27800
C1898       C  0.09615890  0.63095424  0.59002308     0.01800
C1899       C  0.10739456  0.65830428  0.58400968     0.29900
C1900       C  0.09051832  0.67822648  0.56962010    -0.19600
C1901       C  0.06237389  0.67126531  0.56072145    -0.29000
C1902       C  0.05112415  0.64389821  0.56693839     0.43900
C1903       C  0.11378922  0.60916594  0.60453512     0.05100
O1904       O  0.13488859  0.66573016  0.59197377    -0.57500
H1905       H  0.09968387  0.69907328  0.56502390     0.18000
O1906       O  0.02369357  0.63626666  0.55897188    -0.64200
H1907       H  0.05911530  0.60303841  0.58583745     0.16500
C1908       C  0.10431996  0.59592342  0.62989404     0.28700
C1909       C  0.12087709  0.57474621  0.64273271    -0.25100
C1910       C  0.14711462  0.56646134  0.63074338    -0.24400
C1911       C  0.15661003  0.57978083  0.60534608     0.40200
C1912       C  0.14001482  0.60103821  0.59255317    -0.26900
O1913       O  0.07898166  0.60367100  0.64238875    -0.58800
H1914       H  0.11311093  0.56469443  0.66215015     0.15800
O1915       O  0.18270539  0.57330426  0.59368165    -0.60200
H1916       H  0.14756629  0.61106938  0.57303742     0.14300
H1917       H  0.01152973  0.64187881  0.57542735     0.46100
H1918       H  0.08432515  0.61861477  0.65671349     0.41500
H1919       H  0.17825859  0.56307792  0.57542254     0.45000
H1920       H  0.13339309  0.67287271  0.61200938     0.36400
C1921       C  0.88354393  0.65152434  0.58693114    -0.27800
C1922       C  0.89580382  0.62450038  0.58913860     0.01800
C1923       C  0.92313544  0.61962133  0.57785863     0.29900
C1924       C  0.93758301  0.64155354  0.56360475    -0.19600
C1925       C  0.92520047  0.66865279  0.56075409    -0.29000
C1926       C  0.89809214  0.67365844  0.57306914     0.43900
C1927       C  0.87899354  0.60104844  0.60156982     0.05100
O1928       O  0.93513373  0.59306150  0.57929038    -0.57500
H1929       H  0.95843189  0.63718295  0.55454535     0.18000
O1930       O  0.88490088  0.69953625  0.57039299    -0.64200
H1931       H  0.86238769  0.65529802  0.59559286     0.16500
C1932       C  0.88729019  0.58843226  0.62754866     0.28700
C1933       C  0.87057851  0.56645248  0.63903016    -0.25100
C1934       C  0.84517597  0.55722299  0.62517891    -0.24400
C1935       C  0.83711975  0.56981870  0.59893569     0.40200
C1936       C  0.85411296  0.59152138  0.58729878    -0.26900
O1937       O  0.91136920  0.59776198  0.64207743    -0.58800
H1938       H  0.87728355  0.55688669  0.65908070     0.15800
O1939       O  0.81225094  0.56194809  0.58495993    -0.60200
H1940       H  0.84766535  0.60126656  0.56723725     0.14300
H1941       H  0.88930876  0.70994372  0.58855384     0.46100
H1942       H  0.90513995  0.61456206  0.65341001     0.41500
H1943       H  0.79723965  0.57432716  0.59318641     0.45000
H1944       H  0.94891992  0.59417032  0.59559115     0.36400
C1945       C  0.87340259  0.64877422  0.41150769    -0.27800
C1946       C  0.88454046  0.62137966  0.40748587     0.01800
C1947       C  0.91300458  0.61606442  0.41599250     0.29900
C1948       C  0.92981768  0.63793479  0.42849500    -0.19600
C1949       C  0.91886474  0.66557955  0.43228342    -0.29000
C1950       C  0.89023743  0.67076217  0.42373409     0.43900
C1951       C  0.86638755  0.59859747  0.39409313     0.05100
O1952       O  0.92464658  0.58958343  0.41203348    -0.57500
H1953       H  0.95166015  0.63331899  0.43486427     0.18000
O1954       O  0.87832186  0.69715595  0.42742864    -0.64200
H1955       H  0.85156694  0.65318337  0.40494324     0.16500
C1956       C  0.84140799  0.58835186  0.40769593     0.28700
C1957       C  0.82446774  0.56688999  0.39456123    -0.25100
C1958       C  0.83172000  0.55590889  0.36749320    -0.24400
C1959       C  0.85699750  0.56597546  0.35407296     0.40200
C1960       C  0.87403007  0.58712998  0.36736197    -0.26900
O1961       O  0.83387591  0.59864721  0.43421166    -0.58800
H1962       H  0.80537824  0.55915738  0.40532535     0.15800
O1963       O  0.86554077  0.55500021  0.32813548    -0.60200
H1964       H  0.89324374  0.59472694  0.35670293     0.14300
H1965       H  0.86923751  0.69655693  0.44663761     0.46100
H1966       H  0.81887956  0.61299046  0.43037946     0.41500
H1967       H  0.87487508  0.53666217  0.33276979     0.45000
H1968       H  0.91817161  0.57816250  0.42871230     0.36400
C1969       C  0.06892535  0.87501034  0.37166103    -0.27800
C1970       C  0.08024845  0.90033794  0.38386727     0.01800
C1971       C  0.07780756  0.90443602  0.41390459     0.29900
C1972       C  0.06438844  0.88368509  0.43096957    -0.19600
C1973       C  0.05372258  0.85815578  0.41885206    -0.29000
C1974       C  0.05581352  0.85407057  0.38884293     0.43900
C1975       C  0.09423247  0.92258985  0.36543890     0.05100
O1976       O  0.08885010  0.92852872  0.42699386    -0.57500
H1977       H  0.06293663  0.88729327  0.45393969     0.18000
O1978       O  0.04458461  0.82993690  0.37595860    -0.64200
H1979       H  0.06980387  0.87160160  0.34864513     0.16500
C1980       C  0.11572457  0.91575980  0.34533194     0.28700
C1981       C  0.13015480  0.93760335  0.33036958    -0.25100
C1982       C  0.12339119  0.96647243  0.33481455    -0.24400
C1983       C  0.10139217  0.97318151  0.35429483     0.40200
C1984       C  0.08691421  0.95140260  0.36905241    -0.26900
O1985       O  0.12394226  0.88799484  0.34134344    -0.58800
H1986       H  0.14689879  0.93193647  0.31540976     0.15800
O1987       O  0.09536425  0.00106368  0.36085055    -0.60200
H1988       H  0.07020464  0.95722849  0.38397528     0.14300
H1989       H  0.02370767  0.83342442  0.37412282     0.46100
H1990       H  0.11628431  0.88238010  0.32215690     0.41500
H1991       H  0.07605277  0.00449180  0.35259394     0.45000
H1992       H  0.10959020  0.92479566  0.42962042     0.36400
C1993       C  0.88494290  0.87393278  0.39941239    -0.27800
C1994       C  0.89965817  0.89877929  0.39097360     0.01800
C1995       C  0.92890964  0.90226413  0.39827113     0.29900
C1996       C  0.94291030  0.88106580  0.41379404    -0.19600
C1997       C  0.92820264  0.85608223  0.42184520    -0.29000
C1998       C  0.89901741  0.85261382  0.41457145     0.43900
C1999       C  0.88437789  0.92074181  0.37432173     0.05100
O2000       O  0.94401334  0.92620646  0.39020018    -0.57500
H2001       H  0.96540717  0.88400041  0.41923361     0.18000
O2002       O  0.88381696  0.82883377  0.42286901    -0.64200
H2003       H  0.86231601  0.87119569  0.39456743     0.16500
C2004       C  0.86892589  0.91337646  0.34914538     0.28700
C2005       C  0.85611421  0.93470980  0.33277456    -0.25100
C2006       C  0.85844858  0.96339525  0.34122345    -0.24400
C2007       C  0.87269925  0.97068140  0.36699917     0.40200
C2008       C  0.88545884  0.94937030  0.38344990    -0.26900
O2009       O  0.86767535  0.88562942  0.33950976    -0.58800
H2010       H  0.84515933  0.92894454  0.31292116     0.15800
O2011       O  0.87339185  0.99841674  0.37669886    -0.60200
H2012       H  0.89636225  0.95522726  0.40330302     0.14300
H2013       H  0.87775857  0.83292772  0.44285592     0.46100
H2014       H  0.84773628  0.87903683  0.34319979     0.41500
H2015       H  0.89304994  0.00557841  0.37263473     0.45000
H2016       H  0.95385914  0.92076729  0.37218453     0.36400
C2017       C  0.89688077  0.87331717  0.60286348    -0.27800
C2018       C  0.89831059  0.90184234  0.59405157     0.01800
C2019       C  0.91330201  0.90876133  0.56882974     0.29900
C2020       C  0.92724964  0.88731876  0.55327133    -0.19600
C2021       C  0.92609444  0.85861808  0.56212458    -0.29000
C2022       C  0.91025032  0.85177891  0.58710256     0.43900
C2023       C  0.88484544  0.92410276  0.61209133     0.05100
O2024       O  0.91562838  0.93660960  0.56003772    -0.57500
H2025       H  0.93905829  0.89330883  0.53421607     0.18000
O2026       O  0.90833432  0.82428827  0.59698333    -0.64200
H2027       H  0.88528200  0.86768728  0.62217843     0.16500
C2028       C  0.86345810  0.94202364  0.60099642     0.28700
C2029       C  0.85065328  0.96230211  0.61882491    -0.25100
C2030       C  0.85864488  0.96483947  0.64787949    -0.24400
C2031       C  0.87970475  0.94669606  0.65908573     0.40200
C2032       C  0.89269785  0.92658676  0.64120567    -0.26900
O2033       O  0.85450208  0.93952842  0.57295358    -0.58800
H2034       H  0.83440358  0.97610425  0.60993810     0.15800
O2035       O  0.88718551  0.94789906  0.68762855    -0.60200
H2036       H  0.90885000  0.91270338  0.65014188     0.14300
H2037       H  0.89015097  0.81648792  0.58877174     0.46100
H2038       H  0.84021697  0.92365366  0.57280984     0.41500
H2039       H  0.87386501  0.93439744  0.69726339     0.45000
H2040       H  0.90392010  0.93772013  0.54221034     0.36400
C2041       C  0.06316369  0.90894460  0.57920342    -0.27800
C2042       C  0.08628414  0.90163396  0.59681858     0.01800
C2043       C  0.09613048  0.87344025  0.59697966     0.29900
C2044       C  0.08208572  0.85261027  0.58024685    -0.19600
C2045       C  0.05862862  0.85970484  0.56253829    -0.29000
C2046       C  0.04956219  0.88840699  0.56183940     0.43900
C2047       C  0.09939179  0.92360801  0.61553004     0.05100
O2048       O  0.11862129  0.86585374  0.61437307    -0.57500
H2049       H  0.08944278  0.83082207  0.58146538     0.18000
O2050       O  0.02665416  0.89651500  0.54529022    -0.64200
H2051       H  0.05556045  0.93071996  0.57901124     0.16500
C2052       C  0.12677802  0.93479876  0.60964506     0.28700
C2053       C  0.13874347  0.95577655  0.62765734    -0.25100
C2054       C  0.12360003  0.96592289  0.65160157    -0.24400
C2055       C  0.09591476  0.95497734  0.65714479     0.40200
C2056       C  0.08401874  0.93388468  0.63911403    -0.26900
O2057       O  0.14197899  0.92533448  0.58638388    -0.58800
H2058       H  0.15988047  0.96427148  0.62280845     0.15800
O2059       O  0.08105832  0.96346797  0.68099357    -0.60200
H2060       H  0.06287734  0.92524616  0.64373256     0.14300
H2061       H  0.03518488  0.90452803  0.52755642     0.46100
H2062       H  0.13455217  0.93629817  0.56981673     0.41500
H2063       H  0.06486855  0.97490644  0.67361172     0.45000
H2064       H  0.13566596  0.86594584  0.60172384     0.36400
C2065       C  0.16885291  0.79293126  0.52129042    -0.27800
C2066       C  0.18490895  0.79166655  0.49605893     0.01800
C2067       C  0.17191500  0.78136003  0.47057647     0.29900
C2068       C  0.14292805  0.77308592  0.47050871    -0.19600
C2069       C  0.12640965  0.77522592  0.49560491    -0.29000
C2070       C  0.13986577  0.78517140  0.52122305     0.43900
C2071       C  0.21531532  0.80089119  0.49678029     0.05100
O2072       O  0.18765219  0.77848906  0.44591639    -0.57500
H2073       H  0.13333454  0.76533070  0.45063019     0.18000
O2074       O  0.12479047  0.78847789  0.54619757    -0.64200
H2075       H  0.17866049  0.80080683  0.54103183     0.16500
C2076       C  0.22553926  0.82250023  0.47856351     0.28700
C2077       C  0.25487308  0.82898781  0.47772844    -0.25100
C2078       C  0.27453055  0.81435646  0.49531696    -0.24400
C2079       C  0.26345741  0.79509659  0.51593387     0.40200
C2080       C  0.23424281  0.78815851  0.51617133    -0.26900
O2081       O  0.20702143  0.83731057  0.46133529    -0.58800
H2082       H  0.26161748  0.84544657  0.46309977     0.15800
O2083       O  0.28133633  0.78162842  0.53490882    -0.60200
H2084       H  0.22646076  0.77217910  0.53106445     0.14300
H2085       H  0.11738460  0.80821169  0.54541411     0.46100
H2086       H  0.20039400  0.85345626  0.47337376     0.41500
H2087       H  0.28120741  0.79359501  0.55256439     0.45000
H2088       H  0.18051793  0.79340608  0.43272423     0.36400
C2089       C  0.40020948  0.72729612  0.49754176    -0.27800
C2090       C  0.39112025  0.70830573  0.47566853     0.01800
C2091       C  0.37034867  0.71714622  0.45572853     0.29900
C2092       C  0.35811601  0.74414324  0.45846585    -0.19600
C2093       C  0.36661808  0.76290491  0.48070538    -0.29000
C2094       C  0.38822111  0.75454431  0.50003315     0.43900
C2095       C  0.40101834  0.67836270  0.47568876     0.05100
O2096       O  0.36036244  0.69873530  0.43480531    -0.57500
H2097       H  0.34128011  0.75016902  0.44361110     0.18000
O2098       O  0.39669295  0.77219490  0.52223371    -0.64200
H2099       H  0.41603593  0.72062090  0.51319589     0.16500
C2100       C  0.41645327  0.66661098  0.45257930     0.28700
C2101       C  0.42536683  0.63805576  0.45356060    -0.25100
C2102       C  0.41922186  0.62104251  0.47752885    -0.24400
C2103       C  0.40278718  0.63270260  0.50000544     0.40200
C2104       C  0.39406886  0.66108102  0.49909047    -0.26900
O2105       O  0.42371206  0.68309743  0.42942655    -0.58800
H2106       H  0.43833521  0.62970550  0.43633959     0.15800
O2107       O  0.39535564  0.61649904  0.52324793    -0.60200
H2108       H  0.38172634  0.66963849  0.51675816     0.14300
H2109       H  0.38322136  0.76797609  0.53811186     0.46100
H2110       H  0.44158170  0.69334667  0.43527248     0.41500
H2111       H  0.37594127  0.60891642  0.51845244     0.45000
H2112       H  0.36959345  0.70521600  0.41680245     0.36400
C2113       C  0.23393726  0.23176062  0.47321961    -0.27800
C2114       C  0.21629576  0.22473579  0.49643768     0.01800
C2115       C  0.22793342  0.20944421  0.51956014     0.29900
C2116       C  0.25712807  0.20261302  0.51985296    -0.19600
C2117       C  0.27541671  0.21063118  0.49710950    -0.29000
C2118       C  0.26307368  0.22489025  0.47336440     0.43900
C2119       C  0.18577434  0.23337977  0.49604980     0.05100
O2120       O  0.21060988  0.19997530  0.54138104    -0.57500
H2121       H  0.26477845  0.19110879  0.53824877     0.18000
O2122       O  0.27935582  0.23198657  0.44993091    -0.64200
H2123       H  0.22518398  0.24310384  0.45499362     0.16500
C2124       C  0.17399851  0.24928021  0.51882619     0.28700
C2125       C  0.14509885  0.25690570  0.51805687    -0.25100
C2126       C  0.12750976  0.24944256  0.49448754    -0.24400
C2127       C  0.13956022  0.23418275  0.47128502     0.40200
C2128       C  0.16843163  0.22637712  0.47221964    -0.26900
O2129       O  0.19058804  0.25773331  0.54186542    -0.58800
H2130       H  0.13644400  0.26879338  0.53600291     0.15800
O2131       O  0.12323838  0.22612952  0.44788486    -0.60200
H2132       H  0.17719515  0.21431430  0.45444315     0.14300
H2133       H  0.28212106  0.25299282  0.45108178     0.46100
H2134       H  0.20038959  0.27554976  0.53565844     0.41500
H2135       H  0.11664370  0.20634775  0.45194871     0.45000
H2136       H  0.21721346  0.21040865  0.55887535     0.36400
C2137       C  0.40367165  0.35354022  0.48026830    -0.27800
C2138       C  0.42142203  0.33051442  0.47377145     0.01800
C2139       C  0.45057494  0.33578178  0.46780003     0.29900
C2140       C  0.46185847  0.36375138  0.46989616    -0.19600
C2141       C  0.44436166  0.38664440  0.47822078    -0.29000
C2142       C  0.41474833  0.38131461  0.48235975     0.43900
C2143       C  0.40884611  0.30130609  0.47517205     0.05100
O2144       O  0.46800137  0.31385380  0.45957304    -0.57500
H2145       H  0.48449752  0.36732920  0.46596553     0.18000
O2146       O  0.39635738  0.40301248  0.48894181    -0.64200
H2147       H  0.38110308  0.34982622  0.48454939     0.16500
C2148       C  0.41583244  0.28287958  0.49796787     0.28700
C2149       C  0.39877330  0.25852294  0.50321016    -0.25100
C2150       C  0.37453533  0.25248641  0.48609168    -0.24400
C2151       C  0.36897268  0.26967574  0.46197524     0.40200
C2152       C  0.38598065  0.29393375  0.45675804    -0.26900
O2153       O  0.43831714  0.28930766  0.51613560    -0.58800
H2154       H  0.40363001  0.24515355  0.52148511     0.15800
O2155       O  0.34702331  0.26274647  0.44330053    -0.60200
H2156       H  0.38055228  0.30773424  0.43897397     0.14300
H2157       H  0.39036271  0.41093775  0.47015022     0.46100
H2158       H  0.43039324  0.30250389  0.53073474     0.41500
H2159       H  0.33207530  0.27724865  0.44666364     0.45000
H2160       H  0.47947109  0.30919478  0.47689485     0.36400
C2161       C  0.72977537  0.33183940  0.96957548    -0.27800
C2162       C  0.71534454  0.32028881  0.99326583     0.01800
C2163       C  0.71000555  0.33770548  0.01734633     0.29900
C2164       C  0.71871820  0.36626582  0.01733292    -0.19600
C2165       C  0.73259683  0.37811927  0.99339008    -0.29000
C2166       C  0.73843402  0.36051556  0.96948455     0.43900
C2167       C  0.70675315  0.28984776  0.99302075     0.05100
O2168       O  0.69587069  0.32715540  0.04085624    -0.57500
H2169       H  0.71375642  0.37936628  0.03588325     0.18000
O2170       O  0.75259374  0.37102957  0.94598490    -0.64200
H2171       H  0.73463398  0.31849041  0.95117907     0.16500
C2172       C  0.69111506  0.27780477  0.96989074     0.28700
C2173       C  0.68487149  0.24852477  0.96938837    -0.25100
C2174       C  0.69365880  0.23078305  0.99210038    -0.24400
C2175       C  0.70802374  0.24350210  0.01593783     0.40200
C2176       C  0.71485146  0.27253270  0.01597104    -0.26900
O2177       O  0.68205734  0.29441525  0.94748101    -0.58800
H2178       H  0.67342573  0.24023875  0.95090638     0.15800
O2179       O  0.71668777  0.22735978  0.03886408    -0.60200
H2180       H  0.72706449  0.28142953  0.03386034     0.14300
H2181       H  0.77265784  0.36455759  0.94819738     0.46100
H2182       H  0.66470457  0.30416725  0.95460584     0.41500
H2183       H  0.70290605  0.23159635  0.05442988     0.45000
H2184       H  0.67518333  0.32915885  0.03632097     0.36400
C2185       C  0.84857870  0.11642574  0.96523434    -0.27800
C2186       C  0.82499586  0.09926790  0.97356042     0.01800
C2187       C  0.82915158  0.06995511  0.97812292     0.29900
C2188       C  0.85659028  0.05861938  0.97598096    -0.19600
C2189       C  0.88045533  0.07604649  0.96995702    -0.29000
C2190       C  0.87627120  0.10496305  0.96343387     0.43900
C2191       C  0.79679282  0.11229974  0.97992305     0.05100
O2192       O  0.80688606  0.05251705  0.98646021    -0.57500
H2193       H  0.85960917  0.03624716  0.98055339     0.18000
O2194       O  0.89919573  0.12257728  0.95762755    -0.64200
H2195       H  0.84568125  0.13897522  0.96124995     0.16500
C2196       C  0.79480428  0.13454055  0.00024619     0.28700
C2197       C  0.76816576  0.14645459  0.00641087    -0.25100
C2198       C  0.74304746  0.13699259  0.99219141    -0.24400
C2199       C  0.74482277  0.11391956  0.97268238     0.40200
C2200       C  0.77155806  0.10177281  0.96670412    -0.26900
O2201       O  0.81875220  0.14436048  0.01468862    -0.58800
H2202       H  0.76728112  0.16383989  0.02184727     0.15800
O2203       O  0.72107151  0.10448728  0.95771892    -0.60200
H2204       H  0.77268911  0.08454234  0.95112078     0.14300
H2205       H  0.90079011  0.12248752  0.93638474     0.46100
H2206       H  0.82380650  0.16280889  0.00553177     0.41500
H2207       H  0.71522748  0.08638987  0.96711224     0.45000
H2208       H  0.80668430  0.05377327  0.00774730     0.36400
C2209       C  0.30087731  0.27424802  0.00663918    -0.27800
C2210       C  0.27343318  0.28376290  0.99907321     0.01800
C2211       C  0.25273061  0.26359978  0.98995262     0.29900
C2212       C  0.25934734  0.23454696  0.98867672    -0.19600
C2213       C  0.28664737  0.22440089  0.99692296    -0.29000
C2214       C  0.30763908  0.24502434  0.00539804     0.43900
C2215       C  0.26656329  0.31475885  0.99981262     0.05100
O2216       O  0.22578204  0.27209926  0.98198100    -0.57500
H2217       H  0.24271317  0.22058254  0.98044656     0.18000
O2218       O  0.33513714  0.23689255  0.01172756    -0.64200
H2219       H  0.31729676  0.28959721  0.01311894     0.16500
C2220       C  0.26653317  0.33028222  0.02578870     0.28700
C2221       C  0.25952217  0.35939422  0.02595825    -0.25100
C2222       C  0.25265207  0.37380237  0.00032377    -0.24400
C2223       C  0.25209722  0.35780641  0.97434748     0.40200
C2224       C  0.25905655  0.32873096  0.97431569    -0.26900
O2225       O  0.27245570  0.31693539  0.05126460    -0.58800
H2226       H  0.25997491  0.37077535  0.04629395     0.15800
O2227       O  0.24517778  0.37029432  0.94867875    -0.60200
H2228       H  0.25874861  0.31701013  0.95415707     0.14300
H2229       H  0.33725801  0.23937776  0.03282257     0.46100
H2230       H  0.29261691  0.32226587  0.05591948     0.41500
H2231       H  0.22402986  0.36826732  0.94697336     0.45000
H2232       H  0.21538652  0.27511233  0.00026291     0.36400
C2233       C  0.17014229  0.04574547  0.96895888    -0.27800
C2234       C  0.17490407  0.07510956  0.97346194     0.01800
C2235       C  0.15136945  0.09280014  0.97896721     0.29900
C2236       C  0.12369016  0.08118362  0.98015506    -0.19600
C2237       C  0.11871287  0.05174231  0.97626421    -0.29000
C2238       C  0.14226476  0.03397754  0.97032070     0.43900
C2239       C  0.20431459  0.08758228  0.97356563     0.05100
O2240       O  0.15531002  0.12149060  0.98398676    -0.57500
H2241       H  0.10603064  0.09534089  0.98461986     0.18000
O2242       O  0.13846385  0.00508269  0.96667665    -0.64200
H2243       H  0.18810540  0.03190219  0.96477361     0.16500
C2244       C  0.22389102  0.08165629  0.99589193     0.28700
C2245       C  0.24890684  0.09848395  0.99931438    -0.25100
C2246       C  0.25465166  0.12110675  0.98048788    -0.24400
C2247       C  0.23638385  0.12511783  0.95659498     0.40200
C2248       C  0.21133070  0.10864137  0.95344335    -0.26900
O2249       O  0.21740012  0.06132832  0.01599227    -0.58800
H2250       H  0.26265736  0.09517294  0.01780836     0.15800
O2251       O  0.24194579  0.14639439  0.93719682    -0.60200
H2252       H  0.19659562  0.11326129  0.93601967     0.14300
H2253       H  0.14154912  0.99677568  0.98599622     0.46100
H2254       H  0.22772051  0.04401759  0.00969341     0.41500
H2255       H  0.25284563  0.13708073  0.92157381     0.45000
H2256       H  0.15923976  0.12321346  0.00490727     0.36400
C2257       C  0.75727152  0.82087709  0.48750620    -0.27800
C2258       C  0.76711298  0.79290761  0.48999888     0.01800
C2259       C  0.74723363  0.77045974  0.49329289     0.29900
C2260       C  0.71786802  0.77607512  0.49456110    -0.19600
C2261       C  0.70751726  0.80424082  0.49261923    -0.29000
C2262       C  0.72786292  0.82667116  0.48886303     0.43900
C2263       C  0.79821586  0.78720715  0.49049413     0.05100
O2264       O  0.75639643  0.74285138  0.49578540    -0.57500
H2265       H  0.70381701  0.75795382  0.49750352     0.18000
O2266       O  0.71922184  0.85454203  0.48747004    -0.64200
H2267       H  0.77249439  0.83836981  0.48512596     0.16500
C2268       C  0.81470744  0.78897017  0.46541961     0.28700
C2269       C  0.84373937  0.78163518  0.46616297    -0.25100
C2270       C  0.85719138  0.77353628  0.49203292    -0.24400
C2271       C  0.84050705  0.77255748  0.51736060     0.40200
C2272       C  0.81128613  0.77908828  0.51630211    -0.26900
O2273       O  0.80246798  0.79720652  0.43995268    -0.58800
H2274       H  0.85580485  0.78275763  0.44639668     0.15800
O2275       O  0.85244939  0.76562149  0.54337702    -0.60200
H2276       H  0.79873750  0.77793414  0.53580085     0.14300
H2277       H  0.72142964  0.86006154  0.46705022     0.46100
H2278       H  0.80675473  0.81794933  0.43849898     0.41500
H2279       H  0.84769008  0.74512676  0.54613994     0.45000
H2280       H  0.75799387  0.73567989  0.47576579     0.36400
C2281       C  0.52808365  0.68882803  0.51695416    -0.27800
C2282       C  0.55715198  0.69446822  0.51161755     0.01800
C2283       C  0.57611722  0.67170566  0.50786847     0.29900
C2284       C  0.56603410  0.64363687  0.50951858    -0.19600
C2285       C  0.53689231  0.63764832  0.51464752    -0.29000
C2286       C  0.51783354  0.66057117  0.51846028     0.43900
C2287       C  0.56845588  0.72394415  0.51067896     0.05100
O2288       O  0.60466864  0.67677052  0.50265949    -0.57500
H2289       H  0.58111492  0.62646960  0.50647140     0.18000
O2290       O  0.48915202  0.65568532  0.52304731    -0.64200
H2291       H  0.51337879  0.70632566  0.51985535     0.16500
C2292       C  0.56811971  0.73953212  0.48491371     0.28700
C2293       C  0.58547812  0.76403363  0.48229514    -0.25100
C2294       C  0.60299981  0.77308503  0.50527224    -0.24400
C2295       C  0.60134269  0.75889464  0.53177148     0.40200
C2296       C  0.58424830  0.73434495  0.53429733    -0.26900
O2297       O  0.55293645  0.72959519  0.46149800    -0.58800
H2298       H  0.58670551  0.77484239  0.46180571     0.15800
O2299       O  0.61792144  0.76772657  0.55467811    -0.60200
H2300       H  0.58466487  0.72240447  0.55417349     0.14300
H2301       H  0.48052315  0.65330608  0.50362114     0.46100
H2302       H  0.53364387  0.73807054  0.46334772     0.41500
H2303       H  0.60588560  0.78147797  0.56532403     0.45000
H2304       H  0.60617459  0.67816620  0.48145855     0.36400
C2305       C  0.71623247  0.74983848  0.02091032    -0.27800
C2306       C  0.70677933  0.73141588  0.99894610     0.01800
C2307       C  0.68897872  0.74181019  0.97710341     0.29900
C2308       C  0.68131279  0.77054627  0.97696829    -0.19600
C2309       C  0.69157969  0.78974219  0.99829439    -0.29000
C2310       C  0.70878397  0.77870165  0.02077472     0.43900
C2311       C  0.71560228  0.70130660  0.99887832     0.05100
O2312       O  0.67825321  0.72373569  0.95620533    -0.57500
H2313       H  0.66732949  0.77706000  0.95983107     0.18000
O2314       O  0.71927966  0.79622946  0.04223616    -0.64200
H2315       H  0.72986145  0.74190786  0.03796823     0.16500
C2316       C  0.73232197  0.69031078  0.97639830     0.28700
C2317       C  0.73969964  0.66149287  0.97617262    -0.25100
C2318       C  0.73091522  0.64334777  0.99843047    -0.24400
C2319       C  0.71408533  0.65449181  0.02097649     0.40200
C2320       C  0.70682506  0.68334522  0.02117034    -0.26900
O2321       O  0.74154446  0.70758454  0.95453386    -0.58800
H2322       H  0.75249515  0.65337503  0.95863823     0.15800
O2323       O  0.70394564  0.63728744  0.04252846    -0.60200
H2324       H  0.69373356  0.69160305  0.03842340     0.14300
H2325       H  0.70669715  0.79268639  0.05897892     0.46100
H2326       H  0.75846738  0.71808456  0.96243519     0.41500
H2327       H  0.68541112  0.62941565  0.03523439     0.45000
H2328       H  0.68890540  0.72864636  0.93848650     0.36400
C2329       C  0.83567674  0.91894108  0.01851434    -0.27800
C2330       C  0.81196492  0.93583224  0.01167464     0.01800
C2331       C  0.81560967  0.96566441  0.00981897     0.29900
C2332       C  0.84301415  0.97795589  0.01320647    -0.19600
C2333       C  0.86705774  0.96067915  0.01722937    -0.29000
C2334       C  0.86308047  0.93109145  0.02106618     0.43900
C2335       C  0.78405830  0.92162340  0.00531887     0.05100
O2336       O  0.79291038  0.98276086  0.00303848    -0.57500
H2337       H  0.84568921  0.00074797  0.01070653     0.18000
O2338       O  0.88606296  0.91372782  0.02604558    -0.64200
H2339       H  0.83307763  0.89604990  0.02089155     0.16500
C2340       C  0.78230835  0.89961333  0.98460829     0.28700
C2341       C  0.75693089  0.88378890  0.98124701    -0.25100
C2342       C  0.73303940  0.88925895  0.99853375    -0.24400
C2343       C  0.73411416  0.91252667  0.01792192     0.40200
C2344       C  0.75954197  0.92859564  0.02113050    -0.26900
O2345       O  0.80535816  0.89350637  0.96750767    -0.58800
H2346       H  0.75623067  0.86654771  0.96560411     0.15800
O2347       O  0.71111523  0.91882358  0.03495337    -0.60200
H2348       H  0.76055004  0.94559750  0.03701581     0.14300
H2349       H  0.88618234  0.91044988  0.04708512     0.46100
H2350       H  0.81278153  0.87506499  0.97460510     0.41500
H2351       H  0.71270128  0.90594982  0.05171652     0.45000
H2352       H  0.79230762  0.98316232  0.98172897     0.36400
C2353       C  0.25841141  0.68869320  0.97541801    -0.27800
C2354       C  0.27118338  0.70255573  0.99913525     0.01800
C2355       C  0.27683109  0.68668874  0.02415442     0.29900
C2356       C  0.26949591  0.65762362  0.02528444    -0.19600
C2357       C  0.25708942  0.64352102  0.00142835    -0.29000
C2358       C  0.25139222  0.65953924  0.97636094     0.43900
C2359       C  0.27774510  0.73369554  0.99805775     0.05100
O2360       O  0.28994014  0.69930621  0.04755078    -0.57500
H2361       H  0.27422058  0.64595857  0.04471884     0.18000
O2362       O  0.23884528  0.64703178  0.95260690    -0.64200
H2363       H  0.25344653  0.70060239  0.95616801     0.16500
C2364       C  0.29407703  0.74570063  0.97573514     0.28700
C2365       C  0.30022978  0.77510676  0.97563873    -0.25100
C2366       C  0.29022827  0.79329759  0.99763957    -0.24400
C2367       C  0.27449035  0.78075428  0.02035235     0.40200
C2368       C  0.26789875  0.75155667  0.02004005    -0.26900
O2369       O  0.30534557  0.72864427  0.95464920    -0.58800
H2370       H  0.31340115  0.78294640  0.95840704     0.15800
O2371       O  0.26490834  0.79701999  0.04287692    -0.60200
H2372       H  0.25508190  0.74277289  0.03728450     0.14300
H2373       H  0.21795697  0.64991211  0.95501044     0.46100
H2374       H  0.29382106  0.73251720  0.93714162     0.41500
H2375       H  0.27933204  0.79461716  0.05840112     0.45000
H2376       H  0.31071788  0.69945786  0.04308664     0.36400
C2377       C  0.20457974  0.89516097  0.04074820    -0.27800
C2378       C  0.19263920  0.91249185  0.01943980     0.01800
C2379       C  0.20998892  0.92113255  0.99615976     0.29900
C2380       C  0.23759590  0.90982040  0.99279273    -0.19600
C2381       C  0.24814112  0.88998911  0.01248662    -0.29000
C2382       C  0.23214980  0.88404424  0.03746907     0.43900
C2383       C  0.16135065  0.91873162  0.01987146     0.05100
O2384       O  0.19979032  0.94017423  0.97635694    -0.57500
H2385       H  0.24987229  0.91500223  0.97378682     0.18000
O2386       O  0.24246466  0.86566382  0.05781322    -0.64200
H2387       H  0.19182408  0.88873964  0.05904657     0.16500
C2388       C  0.14369177  0.91019380  0.99659379     0.28700
C2389       C  0.11493641  0.91827297  0.99559528    -0.25100
C2390       C  0.10269219  0.93388732  0.01819558    -0.24400
C2391       C  0.11947979  0.93970087  0.04293746     0.40200
C2392       C  0.14870801  0.93242624  0.04352489    -0.26900
O2393       O  0.15447332  0.89427768  0.97438970    -0.58800
H2394       H  0.10233573  0.91302749  0.97660023     0.15800
O2395       O  0.10820493  0.95441564  0.06567946    -0.60200
H2396       H  0.16171451  0.93831375  0.06205932     0.14300
H2397       H  0.25788831  0.87648664  0.06805094     0.46100
H2398       H  0.15546814  0.87450224  0.98181885     0.41500
H2399       H  0.10125170  0.93950207  0.07907927     0.45000
H2400       H  0.19731416  0.92916981  0.95821125     0.36400
C2401       C  0.31490080  0.03565198  0.25520173    -0.27800
C2402       C  0.30339148  0.01391396  0.27248786     0.01800
C2403       C  0.32107806  0.99133604  0.28106464     0.29900
C2404       C  0.34990274  0.99101848  0.27294894    -0.19600
C2405       C  0.36179309  0.01319081  0.25640505    -0.29000
C2406       C  0.34381300  0.03538057  0.24706544     0.43900
C2407       C  0.27290346  0.01468820  0.28137908     0.05100
O2408       O  0.31054384  0.96976333  0.29796461    -0.57500
H2409       H  0.36324276  0.97381346  0.28055060     0.18000
O2410       O  0.35420742  0.05691215  0.23003790    -0.64200
H2411       H  0.30137811  0.05283491  0.24790062     0.16500
C2412       C  0.26209357  0.03780932  0.29718529     0.28700
C2413       C  0.23319818  0.03796623  0.30541228    -0.25100
C2414       C  0.21429836  0.01527855  0.29780007    -0.24400
C2415       C  0.22558379  0.99206710  0.28200705     0.40200
C2416       C  0.25448541  0.99192137  0.27407273    -0.26900
O2417       O  0.27979469  0.06013279  0.30523035    -0.58800
H2418       H  0.22598348  0.05652881  0.31691785     0.15800
O2419       O  0.20811469  0.96992475  0.27298852    -0.60200
H2420       H  0.26244867  0.97409319  0.26163424     0.14300
H2421       H  0.35355509  0.04908685  0.21018031     0.46100
H2422       H  0.27607897  0.07540292  0.29105813     0.41500
H2423       H  0.21296970  0.95364213  0.28557608     0.45000
H2424       H  0.31174988  0.97725993  0.31792457     0.36400
C2425       C  0.67859643  0.03741518  0.24959964    -0.27800
C2426       C  0.69077112  0.01498489  0.26515382     0.01800
C2427       C  0.67304439  0.99267342  0.27510490     0.29900
C2428       C  0.64362643  0.99293445  0.26943468    -0.19600
C2429       C  0.63120044  0.01548239  0.25417427    -0.29000
C2430       C  0.64900245  0.03790743  0.24423065     0.43900
C2431       C  0.72185661  0.01518217  0.27158416     0.05100
O2432       O  0.68424021  0.97063618  0.29070347    -0.57500
H2433       H  0.63038890  0.97568106  0.27761016     0.18000
O2434       O  0.63776687  0.06045332  0.22943600    -0.64200
H2435       H  0.69202370  0.05483337  0.24204058     0.16500
C2436       C  0.74222305  0.01536340  0.24947853     0.28700
C2437       C  0.77152262  0.01455443  0.25614294    -0.25100
C2438       C  0.78114920  0.01314802  0.28493159    -0.24400
C2439       C  0.76036927  0.01377283  0.30699453     0.40200
C2440       C  0.73116575  0.01456460  0.30021510    -0.26900
O2441       O  0.73367110  0.01594000  0.22121992    -0.58800
H2442       H  0.78618437  0.01515569  0.23836961     0.15800
O2443       O  0.76840609  0.01296504  0.33540381    -0.60200
H2444       H  0.71565455  0.01470808  0.31746578     0.14300
H2445       H  0.63863206  0.05477490  0.20889599     0.46100
H2446       H  0.73384141  0.99573887  0.21469566     0.41500
H2447       H  0.76766640  0.03303422  0.34225615     0.45000
H2448       H  0.69136174  0.95686722  0.27621665     0.36400
C2449       C  0.36837133  0.90210088  0.42133850    -0.27800
C2450       C  0.39167698  0.89169554  0.40587714     0.01800
C2451       C  0.40112078  0.86369364  0.41056198     0.29900
C2452       C  0.38680384  0.84617671  0.43025379    -0.19600
C2453       C  0.36278805  0.85621943  0.44505609    -0.29000
C2454       C  0.35382778  0.88457540  0.44076627     0.43900
C2455       C  0.40539981  0.91001576  0.38421825     0.05100
O2456       O  0.42464844  0.85354840  0.39640572    -0.57500
H2457       H  0.39417317  0.82459365  0.43361326     0.18000
O2458       O  0.33175753  0.89574520  0.45646448    -0.64200
H2459       H  0.36125644  0.92379551  0.41809369     0.16500
C2460       C  0.40018473  0.90518389  0.35486158     0.28700
C2461       C  0.41355646  0.92247770  0.33444300    -0.25100
C2462       C  0.43204094  0.94515242  0.34285256    -0.24400
C2463       C  0.43637517  0.95042830  0.37256753     0.40200
C2464       C  0.42315979  0.93282171  0.39291750    -0.26900
O2465       O  0.38205780  0.88353109  0.34595233    -0.58800
H2466       H  0.40940359  0.91793634  0.31193306     0.15800
O2467       O  0.45371671  0.97242102  0.38211072    -0.60200
H2468       H  0.42689045  0.93688444  0.41559743     0.14300
H2469       H  0.31565414  0.89793739  0.44264514     0.46100
H2470       H  0.36283623  0.89230028  0.34468939     0.41500
H2471       H  0.44093756  0.98912703  0.38369971     0.45000
H2472       H  0.41690885  0.84410660  0.37881597     0.36400
C2473       C  0.62434341  0.89755153  0.41913564    -0.27800
C2474       C  0.59573568  0.89279533  0.41074242     0.01800
C2475       C  0.58020728  0.87000198  0.42305418     0.29900
C2476       C  0.59369446  0.85172962  0.44261722    -0.19600
C2477       C  0.62257572  0.85602971  0.45045735    -0.29000
C2478       C  0.63770865  0.87961578  0.43899040     0.43900
C2479       C  0.58290901  0.91111621  0.38823845     0.05100
O2480       O  0.55227762  0.86463590  0.41504710    -0.57500
H2481       H  0.58164329  0.83386169  0.45128609     0.18000
O2482       O  0.66505124  0.88620272  0.44817260    -0.64200
H2483       H  0.63634579  0.91539927  0.41033424     0.16500
C2484       C  0.55880974  0.92804967  0.39376900     0.28700
C2485       C  0.54729413  0.94509559  0.37198345    -0.25100
C2486       C  0.55944637  0.94569125  0.34431582    -0.24400
C2487       C  0.58390735  0.92892943  0.33905028     0.40200
C2488       C  0.59537761  0.91195543  0.36090384    -0.26900
O2489       O  0.54632196  0.92812790  0.42038120    -0.58800
H2490       H  0.52848568  0.95758957  0.37673272     0.15800
O2491       O  0.59675591  0.92877041  0.31261270    -0.60200
H2492       H  0.61403158  0.89913627  0.35639027     0.14300
H2493       H  0.67764462  0.88176708  0.43167577     0.46100
H2494       H  0.55841449  0.94120269  0.43230347     0.41500
H2495       H  0.61406485  0.94113216  0.31484020     0.45000
H2496       H  0.54058383  0.87071318  0.43168330     0.36400
C2497       C  0.36402909  0.12446036  0.41715331    -0.27800
C2498       C  0.38938922  0.13528670  0.40525412     0.01800
C2499       C  0.40055283  0.16175755  0.41456601     0.29900
C2500       C  0.38604084  0.17739186  0.43545563    -0.19600
C2501       C  0.36054801  0.16668301  0.44742307    -0.29000
C2502       C  0.34965679  0.13989098  0.43829260     0.43900
C2503       C  0.40411466  0.11869478  0.38311056     0.05100
O2504       O  0.42547022  0.17253662  0.40317370    -0.57500
H2505       H  0.39468059  0.19796054  0.44223659     0.18000
O2506       O  0.32544350  0.12828193  0.45035631    -0.64200
H2507       H  0.35555286  0.10388061  0.41019830     0.16500
C2508       C  0.42439800  0.09822127  0.39077885     0.28700
C2509       C  0.43778354  0.08216919  0.36946000    -0.25100
C2510       C  0.43146955  0.08648369  0.34018492    -0.24400
C2511       C  0.41120205  0.10757599  0.33267850     0.40200
C2512       C  0.39762660  0.12329408  0.35416679    -0.26900
O2513       O  0.43099923  0.09354851  0.41911367    -0.58800
H2514       H  0.45324370  0.06637171  0.37600897     0.15800
O2515       O  0.40409750  0.11286950  0.30456866    -0.60200
H2516       H  0.38196970  0.13916892  0.34823885     0.14300
H2517       H  0.33230808  0.11778680  0.46747007     0.46100
H2518       H  0.44822232  0.10562158  0.42308489     0.41500
H2519       H  0.41764292  0.12810243  0.29836979     0.45000
H2520       H  0.44089548  0.16627178  0.41639953     0.36400
C2521       C  0.47378622  0.25289249  0.21657093    -0.27800
C2522       C  0.49934206  0.23752024  0.21753160     0.01800
C2523       C  0.52544787  0.25182832  0.21189214     0.29900
C2524       C  0.52553770  0.28063385  0.20418724    -0.19600
C2525       C  0.49978432  0.29599213  0.20227551    -0.29000
C2526       C  0.47396047  0.28195217  0.21017085     0.43900
C2527       C  0.49847701  0.20654123  0.22390467     0.05100
O2528       O  0.55110397  0.23795876  0.21423350    -0.57500
H2529       H  0.54611119  0.29087653  0.20083340     0.18000
O2530       O  0.44857674  0.29636846  0.21162982    -0.64200
H2531       H  0.45344179  0.24236893  0.22076667     0.16500
C2532       C  0.48233336  0.19550430  0.24700344     0.28700
C2533       C  0.48155843  0.16604375  0.25199305    -0.25100
C2534       C  0.49716321  0.14746452  0.23455831    -0.24400
C2535       C  0.51320721  0.15839160  0.21151287     0.40200
C2536       C  0.51345652  0.18764863  0.20610204    -0.26900
O2537       O  0.46839064  0.21343077  0.26555222    -0.58800
H2538       H  0.46927102  0.15776619  0.26987278     0.15800
O2539       O  0.52760517  0.14044754  0.19333829    -0.60200
H2540       H  0.52520508  0.19556084  0.18771561     0.14300
H2541       H  0.44770943  0.30389427  0.23156977     0.46100
H2542       H  0.44762777  0.20982767  0.26212468     0.41500
H2543       H  0.54765021  0.14038457  0.20060856     0.45000
H2544       H  0.55748571  0.24115830  0.23438351     0.36400
C2545       C  0.47612236  0.77035934  0.22657243    -0.27800
C2546       C  0.49583804  0.78988631  0.21495348     0.01800
C2547       C  0.51650117  0.77967146  0.19555491     0.29900
C2548       C  0.51761990  0.75045615  0.18859158    -0.19600
C2549       C  0.49828178  0.73053633  0.20073440    -0.29000
C2550       C  0.47704440  0.74120070  0.21954893     0.43900
C2551       C  0.49518120  0.82064004  0.22376310     0.05100
O2552       O  0.53600529  0.79807194  0.18339860    -0.57500
H2553       H  0.53407197  0.74389343  0.17390027     0.18000
O2554       O  0.45777197  0.72296278  0.23232588    -0.64200
H2555       H  0.46027739  0.77759731  0.24181161     0.16500
C2556       C  0.46981773  0.83663628  0.22192572     0.28700
C2557       C  0.47005714  0.86571768  0.22955003    -0.25100
C2558       C  0.49537788  0.87959065  0.23920191    -0.24400
C2559       C  0.52049597  0.86316632  0.24204226     0.40200
C2560       C  0.52022179  0.83415200  0.23428926    -0.26900
O2561       O  0.44508947  0.82449358  0.21100930    -0.58800
H2562       H  0.45044731  0.87761720  0.22689727     0.15800
O2563       O  0.54567617  0.87524654  0.25189160    -0.60200
H2564       H  0.53979356  0.82210745  0.23650779     0.14300
H2565       H  0.43936424  0.72581470  0.22199761     0.46100
H2566       H  0.43243626  0.82156717  0.22782063     0.41500
H2567       H  0.54567385  0.87206897  0.27294588     0.45000
H2568       H  0.52615852  0.80584528  0.16624594     0.36400
C2569       C  0.57115347  0.09453172  0.09966987    -0.27800
C2570       C  0.59983050  0.10243583  0.10510004     0.01800
C2571       C  0.61145059  0.09815979  0.13271269     0.29900
C2572       C  0.59458567  0.08582549  0.15429691    -0.19600
C2573       C  0.56606144  0.07724988  0.14879822    -0.29000
C2574       C  0.55431425  0.08200581  0.12116280     0.43900
C2575       C  0.61717311  0.11603597  0.08214587     0.05100
O2576       O  0.63890038  0.10716258  0.13910722    -0.57500
H2577       H  0.60403352  0.08269549  0.17535035     0.18000
O2578       O  0.52632644  0.07482007  0.11492861    -0.64200
H2579       H  0.56181279  0.09801945  0.07861313     0.16500
C2580       C  0.64311657  0.10408140  0.07279909     0.28700
C2581       C  0.65975231  0.11805606  0.05207384    -0.25100
C2582       C  0.65098489  0.14406899  0.04028050    -0.24400
C2583       C  0.62447747  0.15559772  0.04908156     0.40200
C2584       C  0.60781880  0.14146333  0.06968740    -0.26900
O2585       O  0.65248679  0.07876006  0.08386759    -0.58800
H2586       H  0.67986812  0.10872380  0.04561811     0.15800
O2587       O  0.61403433  0.18000789  0.03688668    -0.60200
H2588       H  0.58768018  0.15067629  0.07631230     0.14300
H2589       H  0.51486595  0.09099671  0.12222826     0.46100
H2590       H  0.64172781  0.06369942  0.07309755     0.41500
H2591       H  0.61492322  0.19473243  0.05231055     0.45000
H2592       H  0.65003279  0.08948510  0.14198390     0.36400
C2593       C  0.58920166  0.94807833  0.10550387    -0.27800
C2594       C  0.59494226  0.91888008  0.10862311     0.01800
C2595       C  0.58491813  0.90456291  0.13327589     0.29900
C2596       C  0.57026352  0.91956469  0.15461234    -0.19600
C2597       C  0.56452414  0.94871293  0.15144063    -0.29000
C2598       C  0.57395825  0.96293298  0.12652921     0.43900
C2599       C  0.61236873  0.90381728  0.08675143     0.05100
O2600       O  0.58918810  0.87584685  0.13668338    -0.57500
H2601       H  0.56282055  0.90823186  0.17344410     0.18000
O2602       O  0.56893416  0.99148704  0.12278778    -0.64200
H2603       H  0.59711723  0.95961681  0.08701549     0.16500
C2604       C  0.60597425  0.90564705  0.05714514     0.28700
C2605       C  0.62303037  0.89139294  0.03712647    -0.25100
C2606       C  0.64651549  0.87526065  0.04614793    -0.24400
C2607       C  0.65311716  0.87356578  0.07556849     0.40200
C2608       C  0.63620088  0.88790963  0.09561356    -0.26900
O2609       O  0.58254629  0.92044063  0.04767587    -0.58800
H2610       H  0.61773519  0.89273253  0.01445739     0.15800
O2611       O  0.67691524  0.85922605  0.08476585    -0.60200
H2612       H  0.64200006  0.88696406  0.11816779     0.14300
H2613       H  0.58554649  0.00150385  0.13190376     0.46100
H2614       H  0.59045392  0.93766404  0.03808929     0.41500
H2615       H  0.66969083  0.84022214  0.09088027     0.45000
H2616       H  0.57427713  0.86633065  0.12456400     0.36400
C2617       C  0.38203253  0.87981154  0.07659442    -0.27800
C2618       C  0.37295289  0.90528717  0.08935691     0.01800
C2619       C  0.34665904  0.91711752  0.08089163     0.29900
C2620       C  0.32969006  0.90333600  0.06005939    -0.19600
C2621       C  0.33854852  0.87768230  0.04735096    -0.29000
C2622       C  0.36509075  0.86598602  0.05567840     0.43900
C2623       C  0.39119900  0.91972389  0.11115095     0.05100
O2624       O  0.33733954  0.94213444  0.09292346    -0.57500
H2625       H  0.30934174  0.91259752  0.05410004     0.18000
O2626       O  0.37545738  0.84208874  0.04229283    -0.64200
H2627       H  0.40257301  0.87089624  0.08248832     0.16500
C2628       C  0.39871633  0.90592818  0.13685223     0.28700
C2629       C  0.41523787  0.92043115  0.15757542    -0.25100
C2630       C  0.42470509  0.94857058  0.15281934    -0.24400
C2631       C  0.41699245  0.96238906  0.12713877     0.40200
C2632       C  0.40054543  0.94786808  0.10645578    -0.26900
O2633       O  0.38896102  0.87876408  0.14238139    -0.58800
H2634       H  0.42078248  0.90959090  0.17732633     0.15800
O2635       O  0.42474119  0.99030692  0.12235163    -0.60200
H2636       H  0.39480200  0.95870120  0.08676575     0.14300
H2637       H  0.37461235  0.82678065  0.05691637     0.46100
H2638       H  0.40557409  0.86622728  0.13883229     0.41500
H2639       H  0.40999237  0.00178934  0.13224941     0.45000
H2640       H  0.32798862  0.93648046  0.11114476     0.36400
C2641       C  0.38593355  0.10870125  0.13683695    -0.27800
C2642       C  0.38627510  0.09815482  0.10861298     0.01800
C2643       C  0.40551302  0.07641831  0.10136100     0.29900
C2644       C  0.42404434  0.06548682  0.12230789    -0.19600
C2645       C  0.42338440  0.07552754  0.15086809    -0.29000
C2646       C  0.40404636  0.09755507  0.15792366     0.43900
C2647       C  0.36790485  0.11164026  0.08660528     0.05100
O2648       O  0.40724251  0.06667989  0.07356553    -0.57500
H2649       H  0.43879102  0.04889874  0.11610123     0.18000
O2650       O  0.40312254  0.10902870  0.18510631    -0.64200
H2651       H  0.37151696  0.12577740  0.14254465     0.16500
C2652       C  0.34608712  0.09629359  0.07199191     0.28700
C2653       C  0.32902455  0.11005881  0.05141389    -0.25100
C2654       C  0.33340689  0.13913296  0.04513093    -0.24400
C2655       C  0.35541770  0.15433534  0.05992925     0.40200
C2656       C  0.37227504  0.14057659  0.08046479    -0.26900
O2657       O  0.34060068  0.06822430  0.07853908    -0.58800
H2658       H  0.31218621  0.09798558  0.04054225     0.15800
O2659       O  0.36190002  0.18216116  0.05324304    -0.60200
H2660       H  0.38924020  0.15250488  0.09137056     0.14300
H2661       H  0.38715152  0.09881569  0.19478803     0.46100
H2662       H  0.34700459  0.05711742  0.06158867     0.41500
H2663       H  0.35604688  0.19357481  0.07020858     0.45000
H2664       H  0.39931355  0.04692851  0.07387199     0.36400
C2665       C  0.75663877  0.20123152  0.49642867    -0.27800
C2666       C  0.76899879  0.22830479  0.50098211     0.01800
C2667       C  0.75118375  0.25163877  0.50628315     0.29900
C2668       C  0.72144735  0.24794812  0.50663192    -0.19600
C2669       C  0.70851545  0.22084629  0.50204344    -0.29000
C2670       C  0.72674676  0.19739419  0.49679614     0.43900
C2671       C  0.80045387  0.23254524  0.49994676     0.05100
O2672       O  0.76273312  0.27831559  0.51136167    -0.57500
H2673       H  0.70924766  0.26681440  0.51079606     0.18000
O2674       O  0.71550173  0.17047415  0.49242956    -0.64200
H2675       H  0.77017791  0.18305764  0.49223266     0.16500
C2676       C  0.81874261  0.21892914  0.51956781     0.28700
C2677       C  0.84805086  0.22588180  0.52010983    -0.25100
C2678       C  0.85967064  0.24560484  0.50064749    -0.24400
C2679       C  0.84143646  0.25834368  0.48027380     0.40200
C2680       C  0.81208943  0.25191509  0.48017414    -0.26900
O2681       O  0.80800163  0.19970448  0.53898693    -0.58800
H2682       H  0.86181283  0.21554470  0.53546552     0.15800
O2683       O  0.85197077  0.27743508  0.46061712    -0.60200
H2684       H  0.79824243  0.26233557  0.46477728     0.14300
H2685       H  0.71732753  0.16674635  0.47151580     0.46100
H2686       H  0.81179863  0.18063659  0.53053023     0.41500
H2687       H  0.85256967  0.29610289  0.47080036     0.45000
H2688       H  0.76387556  0.28016449  0.53258632     0.36400
C2689       C  0.59296228  0.12876322  0.35625619    -0.27800
C2690       C  0.58275287  0.12739607  0.38452404     0.01800
C2691       C  0.56073970  0.10775196  0.39103533     0.29900
C2692       C  0.54906619  0.09002192  0.36946734    -0.19600
C2693       C  0.55907225  0.09123946  0.34095361    -0.29000
C2694       C  0.58129102  0.11109132  0.33453705     0.43900
C2695       C  0.59597796  0.14564006  0.40738807     0.05100
O2696       O  0.55075520  0.10539044  0.41859361    -0.57500
H2697       H  0.53204573  0.07522476  0.37524379     0.18000
O2698       O  0.59238273  0.11297904  0.30736929    -0.64200
H2699       H  0.61009642  0.14364989  0.35099369     0.16500
C2700       C  0.62484711  0.14218532  0.41525533     0.28700
C2701       C  0.63695323  0.15888302  0.43734523    -0.25100
C2702       C  0.62089643  0.17978147  0.45181912    -0.24400
C2703       C  0.59184492  0.18318289  0.44386247     0.40200
C2704       C  0.57960295  0.16606652  0.42195229    -0.26900
O2705       O  0.64102759  0.12149512  0.40240604    -0.58800
H2706       H  0.65897579  0.15491270  0.44349791     0.15800
O2707       O  0.57523974  0.20332536  0.45695296    -0.60200
H2708       H  0.55728793  0.16891446  0.41611484     0.14300
H2709       H  0.58249209  0.12932269  0.29837399     0.46100
H2710       H  0.65320279  0.13177143  0.38834464     0.41500
H2711       H  0.57735120  0.22065693  0.44498842     0.45000
H2712       H  0.56425087  0.09236775  0.42836634     0.36400
C2713       C  0.59289257  0.36352825  0.53442296    -0.27800
C2714       C  0.57214276  0.34146835  0.53492327     0.01800
C2715       C  0.54292455  0.34839858  0.53595000     0.29900
C2716       C  0.53474467  0.37702123  0.53457361    -0.19600
C2717       C  0.55541898  0.39891926  0.53218409    -0.29000
C2718       C  0.58466271  0.39217563  0.53281848     0.43900
C2719       C  0.58137699  0.31160398  0.53084562     0.05100
O2720       O  0.52233058  0.32730263  0.53784980    -0.57500
H2721       H  0.51211318  0.38208376  0.53409603     0.18000
O2722       O  0.60521298  0.41320852  0.53028023    -0.64200
H2723       H  0.61547553  0.35840603  0.53354684     0.16500
C2724       C  0.57599299  0.29725760  0.50456522     0.28700
C2725       C  0.58951977  0.27131854  0.49859988    -0.25100
C2726       C  0.60855662  0.25955924  0.51854554    -0.24400
C2727       C  0.61239142  0.27295125  0.54557083     0.40200
C2728       C  0.59885543  0.29881935  0.55155192    -0.26900
O2729       O  0.55907349  0.30936181  0.48383188    -0.58800
H2730       H  0.58677324  0.26152801  0.47761472     0.15800
O2731       O  0.63022054  0.26133274  0.56584113    -0.60200
H2732       H  0.60306492  0.30958319  0.57185619     0.14300
H2733       H  0.60840632  0.41515998  0.50932858     0.46100
H2734       H  0.57176173  0.32317197  0.47379170     0.41500
H2735       H  0.64830987  0.27265583  0.56489197     0.45000
H2736       H  0.51277410  0.32660800  0.51875070     0.36400
C2737       C  0.25809216  0.00558976  0.68870796    -0.27800
C2738       C  0.26775038  0.00329171  0.71711859     0.01800
C2739       C  0.24775773  0.00225540  0.73946771     0.29900
C2740       C  0.21848382  0.00453108  0.73344800    -0.19600
C2741       C  0.20834383  0.00788092  0.70497880    -0.29000
C2742       C  0.22874812  0.00784156  0.68252259     0.43900
C2743       C  0.29876777  0.00288926  0.72354738     0.05100
O2744       O  0.25666632  0.99902515  0.76741692    -0.57500
H2745       H  0.20429445  0.00326014  0.75153324     0.18000
O2746       O  0.22010770  0.00943538  0.65432807    -0.64200
H2747       H  0.27339569  0.00607310  0.67127910     0.16500
C2748       C  0.31567974  0.97956771  0.71555701     0.28700
C2749       C  0.34500045  0.97967749  0.72221768    -0.25100
C2750       C  0.35798734  0.00319832  0.73633390    -0.24400
C2751       C  0.34074349  0.02640797  0.74463709     0.40200
C2752       C  0.31141402  0.02605941  0.73823911    -0.26900
O2753       O  0.30359255  0.95633040  0.70182952    -0.58800
H2754       H  0.35768825  0.96156782  0.71571258     0.15800
O2755       O  0.35224488  0.04960096  0.75895022    -0.60200
H2756       H  0.29846401  0.04406105  0.74459907     0.14300
H2757       H  0.22488976  0.02918437  0.64825841     0.46100
H2758       H  0.30633412  0.95993212  0.68103967     0.41500
H2759       H  0.35210948  0.04426788  0.77954549     0.45000
H2760       H  0.26037822  0.97832903  0.76953200     0.36400
C2761       C  0.73457400  0.03724578  0.72052477    -0.27800
C2762       C  0.71504045  0.01669526  0.70997554     0.01800
C2763       C  0.72398539  0.99741160  0.68865959     0.29900
C2764       C  0.75260489  0.99751487  0.67971922    -0.19600
C2765       C  0.77299257  0.01659884  0.69193977    -0.29000
C2766       C  0.76314834  0.03749667  0.71154867     0.43900
C2767       C  0.68527979  0.01593321  0.72102384     0.05100
O2768       O  0.70468625  0.97876622  0.67598591    -0.57500
H2769       H  0.75834238  0.98174941  0.66392776     0.18000
O2770       O  0.78183076  0.05706232  0.72366484    -0.64200
H2771       H  0.72787965  0.05264502  0.73653444     0.16500
C2772       C  0.67284311  0.99059837  0.73174724     0.28700
C2773       C  0.64402652  0.99006374  0.74006045    -0.25100
C2774       C  0.62724548  0.01478545  0.73854358    -0.24400
C2775       C  0.64044045  0.04058737  0.72941798     0.40200
C2776       C  0.66910889  0.04091632  0.72081647    -0.26900
O2777       O  0.68863331  0.96619892  0.73410413    -0.58800
H2778       H  0.63475596  0.97009362  0.74740549     0.15800
O2779       O  0.62546415  0.06557680  0.72801086    -0.60200
H2780       H  0.67850478  0.06069022  0.71308373     0.14300
H2781       H  0.77896646  0.07490529  0.71269818     0.46100
H2782       H  0.69733992  0.96711914  0.75359499     0.41500
H2783       H  0.61764148  0.06622662  0.70814987     0.45000
H2784       H  0.71081253  0.95940567  0.68176239     0.36400
C2785       C  0.41491160  0.12591387  0.63400607    -0.27800
C2786       C  0.40523720  0.11376665  0.60791268     0.01800
C2787       C  0.40896450  0.08416230  0.60341054     0.29900
C2788       C  0.42195412  0.06747792  0.62468019    -0.19600
C2789       C  0.43069033  0.07957702  0.65105955    -0.29000
C2790       C  0.42714929  0.10912130  0.65552685     0.43900
C2791       C  0.39116040  0.13218867  0.58590532     0.05100
O2792       O  0.39955349  0.07113975  0.57854757    -0.57500
H2793       H  0.42456606  0.04482175  0.62079426     0.18000
O2794       O  0.43605437  0.12197872  0.68067352    -0.64200
H2795       H  0.41323246  0.14867452  0.63772367     0.16500
C2796       C  0.36999736  0.15199638  0.59383335     0.28700
C2797       C  0.35737397  0.16944781  0.57307429    -0.25100
C2798       C  0.36489994  0.16735307  0.54396985    -0.24400
C2799       C  0.38558167  0.14710809  0.53586363     0.40200
C2800       C  0.39887123  0.13020896  0.55677118    -0.26900
O2801       O  0.36036097  0.15340896  0.62161253    -0.58800
H2802       H  0.34133030  0.18455870  0.57985905     0.15800
O2803       O  0.39233790  0.14284019  0.50753418    -0.60200
H2804       H  0.41518221  0.11535890  0.55006892     0.14300
H2805       H  0.45658302  0.12687191  0.67771858     0.46100
H2806       H  0.36700808  0.17225615  0.62909889     0.41500
H2807       H  0.37782324  0.12888779  0.50021687     0.45000
H2808       H  0.37940644  0.06534166  0.58234736     0.36400
C2809       C  0.57253988  0.09206953  0.60508395    -0.27800
C2810       C  0.58451147  0.11838796  0.61356204     0.01800
C2811       C  0.58200290  0.12741938  0.64230097     0.29900
C2812       C  0.56790108  0.11001372  0.66222568    -0.19600
C2813       C  0.55592231  0.08341478  0.65394445    -0.29000
C2814       C  0.55809687  0.07474236  0.62484350     0.43900
C2815       C  0.59883582  0.13663771  0.59201911     0.05100
O2816       O  0.59333686  0.15321107  0.65114451    -0.57500
H2817       H  0.56630016  0.11747903  0.68423592     0.18000
O2818       O  0.54691382  0.04906361  0.61551086    -0.64200
H2819       H  0.57414461  0.08506000  0.58291652     0.16500
C2820       C  0.62406646  0.12787250  0.57824044     0.28700
C2821       C  0.63668378  0.14523468  0.55725778    -0.25100
C2822       C  0.62430189  0.17137318  0.54961770    -0.24400
C2823       C  0.59924084  0.18020500  0.56380154     0.40200
C2824       C  0.58684118  0.16293455  0.58490732    -0.26900
O2825       O  0.63650241  0.10239437  0.58512672    -0.58800
H2826       H  0.65598596  0.13810808  0.54669058     0.15800
O2827       O  0.58751783  0.20633993  0.55829548    -0.60200
H2828       H  0.56759483  0.17000665  0.59562349     0.14300
H2829       H  0.52786240  0.05360152  0.60722042     0.46100
H2830       H  0.64771454  0.10631743  0.60293800     0.41500
H2831       H  0.56899933  0.20220606  0.54840512     0.45000
H2832       H  0.61408772  0.14978274  0.65416259     0.36400
C2833       C  0.62698713  0.87182951  0.59660483    -0.27800
C2834       C  0.60541794  0.89135456  0.58970390     0.01800
C2835       C  0.59652010  0.89394322  0.56086205     0.29900
C2836       C  0.60904495  0.87722857  0.53953530    -0.19600
C2837       C  0.63006695  0.85717017  0.54643866    -0.29000
C2838       C  0.63901088  0.85451381  0.57532468     0.43900
C2839       C  0.59152768  0.90834113  0.61260261     0.05100
O2840       O  0.57509739  0.91232511  0.55333213    -0.57500
H2841       H  0.60203226  0.87986559  0.51748076     0.18000
O2842       O  0.65876120  0.83451932  0.58320980    -0.64200
H2843       H  0.63425838  0.86969896  0.61863480     0.16500
C2844       C  0.57944906  0.89501558  0.63683892     0.28700
C2845       C  0.56457359  0.91127351  0.65705166    -0.25100
C2846       C  0.56134819  0.94080811  0.65340247    -0.24400
C2847       C  0.57389396  0.95421228  0.62953293     0.40200
C2848       C  0.58898841  0.93803049  0.60946623    -0.26900
O2849       O  0.58068364  0.86595014  0.64010710    -0.58800
H2850       H  0.55496865  0.90064762  0.67532105     0.15800
O2851       O  0.57172956  0.98313032  0.62573225    -0.60200
H2852       H  0.59859072  0.94868670  0.59122989     0.14300
H2853       H  0.64752134  0.81666186  0.58612845     0.46100
H2854       H  0.59531375  0.86287024  0.65530933     0.41500
H2855       H  0.58789504  0.99165752  0.63693368     0.45000
H2856       H  0.55696608  0.90151583  0.55647789     0.36400
C2857       C  0.40199756  0.88555187  0.55235950    -0.27800
C2858       C  0.39621263  0.88136896  0.58165717     0.01800
C2859       C  0.37715677  0.85908867  0.58945911     0.29900
C2860       C  0.36339265  0.84248982  0.56825213    -0.19600
C2861       C  0.36877051  0.84707884  0.53899751    -0.29000
C2862       C  0.38888843  0.86834133  0.53116466     0.43900
C2863       C  0.40928421  0.90082156  0.60380176     0.05100
O2864       O  0.37152327  0.85351445  0.61778204    -0.57500
H2865       H  0.34820201  0.82606985  0.57469547     0.18000
O2866       O  0.39428004  0.87402015  0.50282192    -0.64200
H2867       H  0.41603319  0.90284394  0.54569975     0.16500
C2868       C  0.43881203  0.90794945  0.60363387     0.28700
C2869       C  0.45049537  0.92584342  0.62512472    -0.25100
C2870       C  0.43325853  0.93655207  0.64724758    -0.24400
C2871       C  0.40374284  0.92998241  0.64711671     0.40200
C2872       C  0.39195183  0.91251862  0.62543199    -0.26900
O2873       O  0.45670915  0.89622639  0.58357623    -0.58800
H2874       H  0.47330867  0.93061530  0.62501401     0.15800
O2875       O  0.38618272  0.94068504  0.66800812    -0.60200
H2876       H  0.36908047  0.90815018  0.62553270     0.14300
H2877       H  0.41348489  0.86597422  0.49905043     0.46100
H2878       H  0.46234878  0.91220972  0.57081989     0.41500
H2879       H  0.37898833  0.95893193  0.66021159     0.45000
H2880       H  0.38710190  0.84074476  0.62414871     0.36400
C2881       C  0.50853669  0.18819290  0.77013269    -0.27800
C2882       C  0.48590625  0.19679834  0.78786664     0.01800
C2883       C  0.46364784  0.17722562  0.79396070     0.29900
C2884       C  0.46447002  0.14947350  0.78273111    -0.19600
C2885       C  0.48750836  0.14059429  0.76557705    -0.29000
C2886       C  0.50961875  0.16029848  0.75924924     0.43900
C2887       C  0.48535026  0.22659108  0.79879647     0.05100
O2888       O  0.44123980  0.18486339  0.81123813    -0.57500
H2889       H  0.44744420  0.13457153  0.78829821     0.18000
O2890       O  0.53189700  0.15279700  0.74174136    -0.64200
H2891       H  0.52538269  0.20325316  0.76450578     0.16500
C2892       C  0.50915152  0.23872791  0.81328742     0.28700
C2893       C  0.50997986  0.26804030  0.81955258    -0.25100
C2894       C  0.48723459  0.28585323  0.81133480    -0.24400
C2895       C  0.46218246  0.27281542  0.79946209     0.40200
C2896       C  0.46160525  0.24364127  0.79292124    -0.26900
O2897       O  0.53174666  0.22201117  0.82139629    -0.58800
H2898       H  0.52908685  0.27642128  0.82983691     0.15800
O2899       O  0.43890833  0.28889444  0.79200227    -0.60200
H2900       H  0.44298496  0.23460749  0.78197527     0.14300
H2901       H  0.54810683  0.14868821  0.75493169     0.46100
H2902       H  0.54751444  0.22687254  0.80800580     0.41500
H2903       H  0.42489494  0.28600706  0.80769962     0.45000
H2904       H  0.44726978  0.17965199  0.83098047     0.36400
C2905       C  0.46803644  0.77379240  0.78749870    -0.27800
C2906       C  0.49461043  0.78632229  0.78074118     0.01800
C2907       C  0.51953160  0.76984630  0.78331893     0.29900
C2908       C  0.51763360  0.74174585  0.79307619    -0.19600
C2909       C  0.49105649  0.72900726  0.80023831    -0.29000
C2910       C  0.46592719  0.74522921  0.79591867     0.43900
C2911       C  0.49605722  0.81645372  0.77093033     0.05100
O2912       O  0.54584385  0.78066123  0.77557957    -0.57500
H2913       H  0.53713717  0.72945099  0.79397058     0.18000
O2914       O  0.43904857  0.73332007  0.79799283    -0.64200
H2915       H  0.44855482  0.78600164  0.78557458     0.16500
C2916       C  0.47701718  0.82682590  0.74982075     0.28700
C2917       C  0.47767012  0.85580805  0.74245477    -0.25100
C2918       C  0.49755714  0.87465228  0.75538763    -0.24400
C2919       C  0.51735361  0.86403119  0.77560862     0.40200
C2920       C  0.51627342  0.83529619  0.78341036    -0.26900
O2921       O  0.45839619  0.80860745  0.73562405    -0.58800
H2922       H  0.46257794  0.86356938  0.72660063     0.15800
O2923       O  0.53720500  0.88175949  0.78871314    -0.60200
H2924       H  0.53085780  0.82791734  0.79991022     0.14300
H2925       H  0.43538775  0.72395426  0.77911534     0.46100
H2926       H  0.43892521  0.81422721  0.74179941     0.41500
H2927       H  0.52810640  0.88811345  0.80683182     0.45000
H2928       H  0.54630384  0.77916769  0.75431481     0.36400
C2929       C  0.35986894  0.14192482  0.89937969    -0.27800
C2930       C  0.37993609  0.12125130  0.90719113     0.01800
C2931       C  0.38255398  0.11357676  0.93631774     0.29900
C2932       C  0.36447448  0.12579402  0.95691467    -0.19600
C2933       C  0.34372876  0.14583285  0.94889085    -0.29000
C2934       C  0.34163900  0.15388306  0.91980736     0.43900
C2935       C  0.39579997  0.10588978  0.88438550     0.05100
O2936       O  0.40211125  0.09358438  0.94472195    -0.57500
H2937       H  0.36650221  0.11939482  0.97916895     0.18000
O2938       O  0.32092140  0.17239044  0.91079746    -0.64200
H2939       H  0.35763320  0.14809790  0.87708065     0.16500
C2940       C  0.38062010  0.09124003  0.86240511     0.28700
C2941       C  0.39542900  0.07601391  0.84137189    -0.25100
C2942       C  0.42542333  0.07498092  0.84188067    -0.24400
C2943       C  0.44076823  0.09010756  0.86344249     0.40200
C2944       C  0.42592980  0.10533825  0.88460694    -0.26900
O2945       O  0.35118927  0.09052799  0.86217951    -0.58800
H2946       H  0.38338443  0.06444293  0.82494947     0.15800
O2947       O  0.47020999  0.09043148  0.86377292    -0.60200
H2948       H  0.43791772  0.11684072  0.90111214     0.14300
H2949       H  0.30360737  0.16031079  0.90728181     0.46100
H2950       H  0.34542333  0.10364643  0.84657952     0.41500
H2951       H  0.47588646  0.10600994  0.85053446     0.45000
H2952       H  0.39191140  0.07494413  0.94287191     0.36400
C2953       C  0.39354443  0.90291335  0.86071667    -0.27800
C2954       C  0.38418940  0.91976589  0.88393094     0.01800
C2955       C  0.39239471  0.94883542  0.88496555     0.29900
C2956       C  0.40985204  0.96041077  0.86348782    -0.19600
C2957       C  0.41888825  0.94370159  0.84010562    -0.29000
C2958       C  0.41035733  0.91474862  0.83872347     0.43900
C2959       C  0.36582813  0.90706039  0.90686322     0.05100
O2960       O  0.38309299  0.96631222  0.90666444    -0.57500
H2961       H  0.41586315  0.98281644  0.86482805     0.18000
O2962       O  0.41939338  0.89752850  0.81670377    -0.64200
H2963       H  0.38802118  0.88039671  0.85972279     0.16500
C2964       C  0.34087516  0.89106577  0.89992633     0.28700
C2965       C  0.32381304  0.87955128  0.92179970    -0.25100
C2966       C  0.33120296  0.88344564  0.95086597    -0.24400
C2967       C  0.35614545  0.89936907  0.95790534     0.40200
C2968       C  0.37315397  0.91106853  0.93602929    -0.26900
O2969       O  0.33249224  0.88729546  0.87182692    -0.58800
H2970       H  0.30480550  0.86720515  0.91599956     0.15800
O2971       O  0.36476641  0.90268458  0.98597921    -0.60200
H2972       H  0.39252690  0.92279721  0.94187737     0.14300
H2973       H  0.40333749  0.89715601  0.80261382     0.46100
H2974       H  0.33647847  0.86701183  0.86726742     0.41500
H2975       H  0.37643475  0.88563627  0.99023164     0.45000
H2976       H  0.36399686  0.97298534  0.90026107     0.36400
C2977       C  0.60602120  0.92289117  0.86009141    -0.27800
C2978       C  0.59349655  0.91732768  0.88676885     0.01800
C2979       C  0.56499042  0.92532739  0.89174950     0.29900
C2980       C  0.54942881  0.93900844  0.87011078    -0.19600
C2981       C  0.56182763  0.94444240  0.84316836    -0.29000
C2982       C  0.59048481  0.93627364  0.83835398     0.43900
C2983       C  0.61069182  0.90339570  0.90924664     0.05100
O2984       O  0.55260539  0.92079627  0.91803385    -0.57500
H2985       H  0.52754103  0.94518281  0.87440225     0.18000
O2986       O  0.60374720  0.94159406  0.81266636    -0.64200
H2987       H  0.62800438  0.91680308  0.85612139     0.16500
C2988       C  0.60349101  0.87588231  0.91890971     0.28700
C2989       C  0.62064763  0.86272772  0.93954856    -0.25100
C2990       C  0.64541989  0.87649425  0.95053602    -0.24400
C2991       C  0.65270256  0.90401325  0.94055642     0.40200
C2992       C  0.63530638  0.91725906  0.92013241    -0.26900
O2993       O  0.57991840  0.86156462  0.90806668    -0.58800
H2994       H  0.61442217  0.84171131  0.94705705     0.15800
O2995       O  0.67707348  0.91794068  0.94999315    -0.60200
H2996       H  0.64117142  0.93835562  0.91253127     0.14300
H2997       H  0.61257347  0.96087371  0.81487394     0.46100
H2998       H  0.58685532  0.85143309  0.89071806     0.41500
H2999       H  0.69258461  0.91114081  0.93727743     0.45000
H3000       H  0.53888709  0.90467627  0.91502932     0.36400
C3001       C  0.64398057  0.12371877  0.89723194    -0.27800
C3002       C  0.61986199  0.10835801  0.90697907     0.01800
C3003       C  0.61456701  0.10693340  0.93673620     0.29900
C3004       C  0.63278055  0.12131371  0.95605601    -0.19600
C3005       C  0.65579845  0.13792825  0.94608340    -0.29000
C3006       C  0.66165739  0.13879337  0.91652464     0.43900
C3007       C  0.59984332  0.09503114  0.88582417     0.05100
O3008       O  0.59103653  0.09255800  0.94710113    -0.57500
H3009       H  0.62808495  0.12060992  0.97882778     0.18000
O3010       O  0.68432774  0.15459040  0.90629828    -0.64200
H3011       H  0.64886154  0.12442622  0.87451667     0.16500
C3012       C  0.58952644  0.11085317  0.86234360     0.28700
C3013       C  0.57158126  0.09780331  0.84190084    -0.25100
C3014       C  0.56305021  0.06917597  0.84476060    -0.24400
C3015       C  0.57245481  0.05355224  0.86879055     0.40200
C3016       C  0.59097028  0.06643386  0.88893762    -0.26900
O3017       O  0.59586719  0.13943938  0.85991869    -0.58800
H3018       H  0.56401169  0.11026423  0.82388683     0.15800
O3019       O  0.56415382  0.02560217  0.87254514    -0.60200
H3020       H  0.59874632  0.05391259  0.90680234     0.14300
H3021       H  0.70051664  0.14109785  0.90521942     0.46100
H3022       H  0.60896542  0.14102706  0.84327169     0.41500
H3023       H  0.57755086  0.01423625  0.86074962     0.45000
H3024       H  0.57528100  0.10658746  0.94667051     0.36400
loop_ 
_geom_bond_atom_site_label_1 
_geom_bond_atom_site_label_2 
_geom_bond_distance 
_geom_bond_site_symmetry_2 
_ccdc_geom_bond_type 
O1          Zr37   2.427       .  S
O1           C12   1.290       .  A
O2          Zr36   2.438       .  S
O2           C13   1.292       .  A
O3           Zr9   2.430       .  S
O3           C14   1.291       .  A
O4           Zr9   2.444       .  S
O4           C15   1.294       .  A
O5          Zr39   2.432       .  S
O5           C15   1.292       .  A
O6          Zr38   2.449       .  S
O6           C14   1.295   1_565  A
O7           Zr9   2.440       .  S
O7           C13   1.293       .  A
O8           Zr9   2.432       .  S
O8           C12   1.292       .  A
Zr9          O10   2.335       .  S
Zr9          O11   2.340       .  S
Zr9          O19   2.332       .  S
Zr9          O17   2.341       .  S
O10         Zr36   2.343       .  S
O10         Zr39   2.337       .  S
O11         Zr37   2.341       .  S
O11         Zr38   2.329   1_545  S
C12        C3014   1.471       .  S
C13        C2813   1.490       .  S
C14        C2774   1.489       .  S
C15        C2885   1.479       .  S
H16          O17   0.966       .  S
O17         Zr36   2.332       .  S
O17         Zr38   2.343   1_545  S
H18          O19   0.965       .  S
O19         Zr37   2.327       .  S
O19         Zr39   2.337       .  S
O20         Zr36   2.433   1_565  S
O20          C43   1.291       .  A
O21         Zr37   2.432   1_565  S
O21          C44   1.292       .  A
O22         Zr38   2.418       .  S
O22          C45   1.288       .  A
O23         Zr39   2.444       .  S
O23          C46   1.294       .  A
O24         Zr39   2.442       .  S
O24          C47   1.293       .  A
O25         Zr38   2.432       .  S
O25          C48   1.291       .  A
O26         Zr40   2.447       .  S
O26          C49   1.294       .  A
O27         Zr40   2.440       .  S
O27          C50   1.293   1_565  A
O28         Zr38   2.427       .  S
O28          C49   1.291       .  A
O29         Zr39   2.430       .  S
O29          C50   1.291       .  A
O30         Zr36   2.449   1_565  S
O30          C45   1.294       .  A
O31         Zr37   2.434   1_565  S
O31          C48   1.292       .  A
O32         Zr37   2.438       .  S
O32          C47   1.292       .  A
O33         Zr36   2.445       .  S
O33          C46   1.293       .  A
O34         Zr40   2.452       .  S
O34          C43   1.295       .  A
O35         Zr40   2.459       .  S
O35          C44   1.296       .  A
Zr36         O42   2.342   1_545  S
Zr36         O54   2.340       .  S
Zr37         O41   2.342       .  S
Zr37         O52   2.331   1_545  S
Zr38         O42   2.339       .  S
Zr38         O52   2.344       .  S
Zr39         O41   2.339       .  S
Zr39         O54   2.345       .  S
Zr40         O41   2.343   1_565  S
Zr40         O42   2.340       .  S
Zr40         O54   2.348   1_565  S
Zr40         O52   2.346       .  S
C43        C2870   1.478       .  S
C44        C2957   1.485       .  S
C45        C2846   1.472       .  S
C46        C2789   1.483       .  S
C47        C2942   1.473       .  S
C48        C2981   1.481       .  S
C49        C2918   1.475       .  S
C50        C2750   1.481       .  S
H51          O52   0.966       .  S
H53          O54   0.966       .  S
C55          C56   1.540       .  S
C55          C61   1.540       .  S
C55          C59   1.533       .  S
C55        C2669   1.535       .  S
C56          H63   1.086       .  S
C56          C57   1.368       .  D
C57          C58   1.540       .  S
C57        C2822   1.486       .  S
C58          C62   1.539       .  S
C58          C60   1.549       .  S
C58          H64   1.107       .  S
C59          H65   1.086       .  S
C59          C60   1.369       .  D
C60        C2702   1.499       .  S
C61          H66   1.080       .  S
C61          C62   1.360       .  D
C62        C2726   1.481       .  S
O67        Zr103   2.447       .  S
O67          C78   1.294       .  A
O68        Zr102   2.422       .  S
O68          C79   1.290       .  A
O69         Zr75   2.445       .  S
O69          C80   1.294       .  A
O70         Zr75   2.442   1_565  S
O70          C81   1.294       .  A
O71        Zr105   2.449       .  S
O71          C81   1.295       .  A
O72        Zr104   2.417       .  S
O72          C80   1.288       .  A
O73         Zr75   2.447   1_565  S
O73          C79   1.294       .  A
O74         Zr75   2.449       .  S
O74          C78   1.295       .  A
Zr75         O76   2.343   1_545  S
Zr75         O77   2.338       .  S
Zr75         O85   2.339       .  S
Zr75         O83   2.334       .  S
O76        Zr102   2.335       .  S
O76        Zr105   2.335       .  S
O77        Zr103   2.340       .  S
O77        Zr104   2.337       .  S
C78        C2693   1.498       .  S
C79        C2462   1.489       .  S
C80        C2510   1.486       .  S
C81        C2486   1.493       .  S
H82          O83   0.965       .  S
O83        Zr102   2.342   1_545  S
O83        Zr104   2.340       .  S
H84          O85   0.966       .  S
O85        Zr103   2.347       .  S
O85        Zr105   2.348   1_545  S
O86        Zr102   2.423       .  S
O86         C109   1.290       .  A
O87        Zr103   2.452       .  S
O87         C110   1.295       .  A
O88        Zr104   2.445       .  S
O88         C111   1.293       .  A
O89        Zr105   2.450       .  S
O89         C112   1.294       .  A
O90        Zr105   2.438       .  S
O90         C113   1.293   1_565  A
O91        Zr104   2.438       .  S
O91         C114   1.292       .  A
O92        Zr106   2.447       .  S
O92         C115   1.294       .  A
O93        Zr106   2.431   1_565  S
O93         C116   1.291       .  A
O94        Zr104   2.420       .  S
O94         C115   1.288       .  A
O95        Zr105   2.447       .  S
O95         C116   1.295       .  A
O96        Zr102   2.440       .  S
O96         C111   1.293   1_565  A
O97        Zr103   2.427       .  S
O97         C114   1.290       .  A
O98        Zr103   2.435       .  S
O98         C113   1.292       .  A
O99        Zr102   2.447       .  S
O99         C112   1.294       .  A
O100       Zr106   2.427   1_565  S
O100        C109   1.290       .  A
O101       Zr106   2.435       .  S
O101        C110   1.291       .  A
Zr102       O108   2.339   1_565  S
Zr102       O120   2.339       .  S
Zr103       O107   2.335       .  S
Zr103       O118   2.344       .  S
Zr104       O108   2.333       .  S
Zr104       O118   2.342       .  S
Zr105       O107   2.342   1_565  S
Zr105       O120   2.342       .  S
Zr106       O107   2.342       .  S
Zr106       O108   2.339       .  S
Zr106       O120   2.339   1_545  S
Zr106       O118   2.326       .  S
C109       C2630   1.469       .  S
C110       C2573   1.487       .  S
C111       C2405   1.484       .  S
C112       C2558   1.497       .  S
C113       C2429   1.480       .  S
C114       C2534   1.465       .  S
C115       C2645   1.488       .  S
C116       C2597   1.477       .  S
H117        O118   0.966       .  S
H119        O120   0.966       .  S
C121        C122   1.542       .  S
C121        C127   1.533   1_556  S
C121        C125   1.538   1_556  S
C121       C2366   1.535       .  S
C122        H129   1.081       .  S
C122        C123   1.366       .  D
C123        C124   1.544   1_556  S
C123       C2966   1.488       .  S
C124        C128   1.544       .  S
C124        C126   1.541       .  S
C124        H130   1.110       .  S
C125        H131   1.085       .  S
C125        C126   1.368       .  D
C126       C2621   1.484       .  S
C127        H132   1.087       .  S
C127        C128   1.362       .  D
C128       C2381   1.485       .  S
C133        C134   1.538   1_556  S
C133        C139   1.532       .  S
C133        C137   1.547       .  S
C133       C2309   1.532       .  S
C134        H141   1.086       .  S
C134        C135   1.365       .  D
C135        C136   1.532   1_554  S
C135       C2606   1.475       .  S
C136        C140   1.538       .  S
C136        C138   1.535       .  S
C136        H142   1.108       .  S
C137        H143   1.079       .  S
C137        C138   1.366       .  D
C138       C2990   1.485       .  S
C139        H144   1.086       .  S
C139        C140   1.365       .  D
C140       C2342   1.483       .  S
C145        C146   1.538       .  S
C145        C151   1.544       .  S
C145        C149   1.541       .  S
C145       C2261   1.537       .  S
C146        H153   1.085       .  S
C146        C147   1.368       .  D
C147        C148   1.538       .  S
C147       C2477   1.489       .  S
C148        C152   1.530       .  S
C148        C150   1.538       .  S
C148        H154   1.110       .  S
C149        H155   1.085       .  S
C149        C150   1.368       .  D
C150       C2837   1.484       .  S
C151        H156   1.081       .  S
C151        C152   1.362       .  D
C152       C2294   1.473       .  S
C157        C158   1.539   1_556  S
C157        C163   1.540       .  S
C157        C161   1.540       .  S
C157       C2213   1.546       .  S
C158        H165   1.084       .  S
C158        C159   1.372       .  D
C159        C160   1.544   1_554  S
C159       C2654   1.493       .  S
C160        C164   1.539       .  S
C160        C162   1.539       .  S
C160        H166   1.110       .  S
C161        H167   1.086       .  S
C161        C162   1.371       .  D
C162       C2933   1.488       .  S
C163        H168   1.080       .  S
C163        C164   1.362       .  D
C164       C2246   1.486       .  S
C169        C170   1.546       .  S
C169        C175   1.528       .  S
C169        C173   1.532   1_556  S
C169       C2174   1.524       .  S
C170        H177   1.082       .  S
C170        C171   1.367       .  D
C171        C172   1.533       .  S
C171       C3005   1.471       .  S
C172        C176   1.546       .  S
C172        C174   1.545   1_556  S
C172        H178   1.109       .  S
C173        H179   1.084       .  S
C173        C174   1.364       .  D
C174       C2582   1.492       .  S
C175        H180   1.087       .  S
C175        C176   1.362       .  D
C176       C2198   1.490       .  S
C181        C182   1.538       .  S
C181        C187   1.537       .  S
C181        C185   1.545       .  S
C181       C2117   1.536       .  S
C182        H189   1.086       .  S
C182        C183   1.367       .  D
C183        C184   1.534       .  S
C183       C2501   1.475       .  S
C184        C188   1.535       .  S
C184        C186   1.541       .  S
C184        H190   1.110       .  S
C185        H191   1.080       .  S
C185        C186   1.368       .  D
C186       C2798   1.493       .  S
C187        H192   1.086       .  S
C187        C188   1.365       .  D
C188       C2150   1.485       .  S
C193        C194   1.536       .  S
C193        C199   1.531       .  S
C193        C197   1.542       .  S
C193       C2078   1.528       .  S
C194        H201   1.086       .  S
C194        C195   1.368       .  D
C195        C196   1.540       .  S
C195       C2861   1.487       .  S
C196        C200   1.542       .  S
C196        C198   1.539       .  S
C196        H202   1.110       .  S
C197        H203   1.080       .  S
C197        C198   1.366       .  D
C198       C2453   1.480       .  S
C199        H204   1.087       .  S
C199        C200   1.360       .  D
C200       C2093   1.482       .  S
O205       Zr241   2.448       .  S
O205        C216   1.295       .  A
O206       Zr240   2.444       .  S
O206        C217   1.293   1_455  A
O207       Zr213   2.428       .  S
O207        C218   1.290       .  A
O208       Zr213   2.431       .  S
O208        C219   1.291       .  A
O209       Zr243   2.452       .  S
O209        C219   1.295       .  A
O210       Zr242   2.422       .  S
O210        C218   1.290       .  A
O211       Zr213   2.437       .  S
O211        C217   1.293       .  A
O212       Zr213   2.438       .  S
O212        C216   1.292       .  A
Zr213       O214   2.340       .  S
Zr213       O215   2.340       .  S
Zr213       O223   2.337       .  S
Zr213       O221   2.339       .  S
O214       Zr240   2.337   1_655  S
O214       Zr243   2.343       .  S
O215       Zr241   2.335       .  S
O215       Zr242   2.346       .  S
C216       C2270   1.492       .  S
C217       C1862   1.485       .  S
C218       C1925   1.476       .  S
C219       C2021   1.493       .  S
H220        O221   0.966       .  S
O221       Zr240   2.330   1_655  S
O221       Zr242   2.332       .  S
H222        O223   0.965       .  S
O223       Zr241   2.345       .  S
O223       Zr243   2.338       .  S
O224       Zr240   2.425       .  S
O224        C247   1.290       .  A
O225       Zr241   2.447       .  S
O225        C248   1.294       .  A
O226       Zr242   2.447   1_455  S
O226        C249   1.294       .  A
O227       Zr243   2.435   1_455  S
O227        C250   1.292       .  A
O228       Zr243   2.423       .  S
O228        C251   1.290       .  A
O229       Zr242   2.444       .  S
O229        C252   1.294       .  A
O230       Zr244   2.436       .  S
O230        C253   1.292       .  A
O231       Zr244   2.446       .  S
O231        C254   1.293       .  A
O232       Zr242   2.436   1_455  S
O232        C253   1.293       .  A
O233       Zr243   2.451   1_455  S
O233        C254   1.295       .  A
O234       Zr240   2.427       .  S
O234        C249   1.291       .  A
O235       Zr241   2.449       .  S
O235        C252   1.294       .  A
O236       Zr241   2.429       .  S
O236        C251   1.291       .  A
O237       Zr240   2.425       .  S
O237        C250   1.291       .  A
O238       Zr244   2.443       .  S
O238        C247   1.294       .  A
O239       Zr244   2.427       .  S
O239        C248   1.291   1_455  A
Zr240       O246   2.338       .  S
Zr240       O258   2.343       .  S
Zr241       O245   2.338       .  S
Zr241       O256   2.346       .  S
Zr242       O246   2.338   1_655  S
Zr242       O256   2.337       .  S
Zr243       O245   2.338       .  S
Zr243       O258   2.328   1_655  S
Zr244       O245   2.330   1_455  S
Zr244       O246   2.337       .  S
Zr244       O258   2.341       .  S
Zr244       O256   2.349   1_455  S
C247       C2069   1.485       .  S
C248       C1838   1.472       .  S
C249       C1901   1.481       .  S
C250       C2045   1.483       .  S
C251       C1997   1.468       .  S
C252       C1949   1.490       .  S
C253       C1886   1.490       .  S
C254       C1973   1.487       .  S
H255        O256   0.967       .  S
H257        O258   0.966       .  S
O259       Zr295   2.422       .  S
O259        C270   1.289       .  A
O260       Zr294   2.448       .  S
O260        C271   1.295   1_455  A
O261       Zr267   2.445       .  S
O261        C272   1.293       .  A
O262       Zr267   2.439       .  S
O262        C273   1.293       .  A
O263       Zr297   2.436       .  S
O263        C273   1.293       .  A
O264       Zr296   2.443       .  S
O264        C272   1.293       .  A
O265       Zr267   2.421       .  S
O265        C271   1.289       .  A
O266       Zr267   2.448       .  S
O266        C270   1.294       .  A
Zr267       O268   2.349       .  S
Zr267       O269   2.331       .  S
Zr267       O277   2.339       .  S
Zr267       O275   2.337       .  S
O268       Zr294   2.340   1_655  S
O268       Zr297   2.333       .  S
O269       Zr295   2.344       .  S
O269       Zr296   2.336       .  S
C270       C2678   1.477       .  S
C271       C1613   1.487       .  S
C272       C1757   1.482       .  S
C273       C1670   1.476       .  S
H274        O275   0.966       .  S
O275       Zr294   2.344   1_655  S
O275       Zr296   2.339       .  S
H276        O277   0.966       .  S
O277       Zr295   2.337       .  S
O277       Zr297   2.353       .  S
O278       Zr294   2.444       .  S
O278        C301   1.294       .  A
O279       Zr295   2.439       .  S
O279        C302   1.293       .  A
O280       Zr296   2.447   1_455  S
O280        C303   1.294       .  A
O281       Zr297   2.463   1_455  S
O281        C304   1.297       .  A
O282       Zr297   2.444       .  S
O282        C305   1.293       .  A
O283       Zr296   2.435       .  S
O283        C306   1.292       .  A
O284       Zr298   2.444       .  S
O284        C307   1.294       .  A
O285       Zr298   2.443       .  S
O285        C308   1.293       .  A
O286       Zr296   2.421   1_455  S
O286        C307   1.289       .  A
O287       Zr297   2.431   1_455  S
O287        C308   1.291       .  A
O288       Zr294   2.436       .  S
O288        C303   1.293       .  A
O289       Zr295   2.439       .  S
O289        C306   1.294       .  A
O290       Zr295   2.445       .  S
O290        C305   1.294       .  A
O291       Zr294   2.445       .  S
O291        C304   1.294       .  A
O292       Zr298   2.427       .  S
O292        C301   1.291       .  A
O293       Zr298   2.431       .  S
O293        C302   1.290   1_455  A
Zr294       O300   2.339       .  S
Zr294       O312   2.340       .  S
Zr295       O299   2.332       .  S
Zr295       O310   2.337       .  S
Zr296       O300   2.335   1_655  S
Zr296       O310   2.355       .  S
Zr297       O299   2.334       .  S
Zr297       O312   2.346   1_655  S
Zr298       O299   2.331   1_455  S
Zr298       O300   2.340       .  S
Zr298       O312   2.343       .  S
Zr298       O310   2.333   1_455  S
C301       C2126   1.482       .  S
C302       C1589   1.487       .  S
C303       C1742   1.489       .  S
C304       C1685   1.498       .  S
C305       C1646   1.484       .  S
C306       C1781   1.484       .  S
C307       C1805   1.477       .  S
C308       C1718   1.482       .  S
H309        O310   0.966       .  S
H311        O312   0.966       .  S
C313        C314   1.536       .  S
C313        C319   1.536       .  S
C313        C317   1.542       .  S
C313       C1541   1.531       .  S
C314        H321   1.086       .  S
C314        C315   1.364       .  D
C315        C316   1.538       .  S
C315       C1661   1.480       .  S
C316        C320   1.537       .  S
C316        C318   1.535       .  S
C316        H322   1.110       .  S
C317        H323   1.080       .  S
C317        C318   1.365       .  D
C318       C1934   1.479       .  S
C319        H324   1.086       .  S
C319        C320   1.365       .  D
C320       C1565   1.481       .  S
C325        C326   1.543       .  S
C325        C331   1.535       .  S
C325        C329   1.534       .  S
C325       C1493   1.540       .  S
C326        H333   1.081       .  S
C326        C327   1.369       .  D
C327        C328   1.541       .  S
C327       C1910   1.487       .  S
C328        C332   1.542       .  S
C328        C330   1.550       .  S
C328        H334   1.105       .  S
C329        H335   1.085       .  S
C329        C330   1.373       .  D
C330       C1694   1.507       .  S
C331        H336   1.086       .  S
C331        C332   1.359       .  D
C332       C1526   1.482       .  S
C337        C338   1.540   1_545  S
C337        C343   1.542       .  S
C337        C341   1.536       .  S
C337       C2438   1.529       .  S
C338        H345   1.086       .  S
C338        C339   1.363       .  D
C339        C340   1.533   1_565  S
C339       C2006   1.471       .  S
C340        C344   1.533       .  S
C340        C342   1.536       .  S
C340        H346   1.111       .  S
C341        H347   1.085       .  S
C341        C342   1.365       .  D
C342       C1790   1.480       .  S
C343        H348   1.082       .  S
C343        C344   1.364       .  D
C344       C1478   1.473       .  S
C349        C350   1.538       .  S
C349        C355   1.529       .  S
C349        C353   1.547   1_545  S
C349       C2765   1.530       .  S
C350        H357   1.086       .  S
C350        C351   1.369       .  D
C351        C352   1.545       .  S
C351       C1766   1.488       .  S
C352        C356   1.538       .  S
C352        C354   1.536   1_545  S
C352        H358   1.110       .  S
C353        H359   1.081       .  S
C353        C354   1.366       .  D
C354       C2030   1.479       .  S
C355        H360   1.087       .  S
C355        C356   1.358       .  D
C356       C1454   1.480   1_545  S
C361        C362   1.535       .  S
C361        C367   1.537       .  S
C361        C365   1.539       .  S
C361       C1397   1.535       .  S
C362        H369   1.086       .  S
C362        C363   1.367       .  D
C363        C364   1.546       .  S
C363       C1958   1.487       .  S
C364        C368   1.538       .  S
C364        C366   1.542       .  S
C364        H370   1.110       .  S
C365        H371   1.085       .  S
C365        C366   1.371       .  D
C366       C1637   1.490       .  S
C367        H372   1.080       .  S
C367        C368   1.356       .  D
C368       C1421   1.481       .  S
C373        C374   1.540       .  S
C373        C379   1.543       .  S
C373        C377   1.536       .  S
C373       C1349   1.530       .  S
C374        H381   1.086       .  S
C374        C375   1.365       .  D
C375        C376   1.536       .  S
C375       C1709   1.480       .  S
C376        C380   1.532       .  S
C376        C378   1.540       .  S
C376        H382   1.107       .  S
C377        H383   1.086       .  S
C377        C378   1.369       .  D
C378       C1877   1.488       .  S
C379        H384   1.082       .  S
C379        C380   1.358       .  D
C380       C1373   1.472       .  S
C385        C386   1.547       .  S
C385        C391   1.531       .  S
C385        C389   1.544   1_545  S
C385       C2414   1.535       .  S
C386        H393   1.081       .  S
C386        C387   1.371       .  D
C387        C388   1.538       .  S
C387       C1814   1.485       .  S
C388        C392   1.532       .  S
C388        C390   1.541   1_545  S
C388        H394   1.107       .  S
C389        H395   1.086       .  S
C389        C390   1.370       .  D
C390       C1982   1.494       .  S
C391        H396   1.087       .  S
C391        C392   1.358       .  D
C392       C1334   1.473       .  S
C397        C398   1.533   1_545  S
C397        C403   1.545       .  S
C397        C401   1.544       .  S
C397       C2741   1.534       .  S
C398        H405   1.086       .  S
C398        C399   1.365       .  D
C399        C400   1.538   1_565  S
C399       C2054   1.479       .  S
C400        C404   1.527       .  S
C400        C402   1.534       .  S
C400        H406   1.110       .  S
C401        H407   1.086       .  S
C401        C402   1.369       .  D
C402       C1733   1.482       .  S
C403        H408   1.081       .  S
C403        C404   1.360       .  D
C404       C1310   1.467       .  S
O409       Zr445   2.441       .  S
O409        C420   1.294       .  A
O410       Zr444   2.428       .  S
O410        C421   1.290       .  A
O411       Zr417   2.442       .  S
O411        C422   1.293       .  A
O412       Zr417   2.426       .  S
O412        C423   1.290       .  A
O413       Zr447   2.435   1_554  S
O413        C423   1.293       .  A
O414       Zr446   2.458   1_554  S
O414        C422   1.297       .  A
O415       Zr417   2.437       .  S
O415        C421   1.292       .  A
O416       Zr417   2.418       .  S
O416        C420   1.289   1_554  A
Zr417       O418   2.337       .  S
Zr417       O419   2.336   1_554  S
Zr417       O427   2.345   1_554  S
Zr417       O425   2.322       .  S
O418       Zr444   2.333       .  S
O418       Zr447   2.338   1_554  S
O419       Zr445   2.344       .  S
O419       Zr446   2.332       .  S
C420       C2318   1.476       .  S
C421       C1406   1.485       .  S
C422       C1133   1.496       .  S
C423       C1277   1.474       .  S
H424        O425   0.964       .  S
O425       Zr444   2.329       .  S
O425       Zr446   2.344   1_554  S
H426        O427   0.966       .  S
O427       Zr445   2.341       .  S
O427       Zr447   2.350       .  S
O428       Zr444   2.421       .  S
O428        C451   1.290   1_554  A
O429       Zr445   2.449       .  S
O429        C452   1.295       .  A
O430       Zr446   2.443   1_554  S
O430        C453   1.293       .  A
O431       Zr447   2.451   1_554  S
O431        C454   1.295       .  A
O432       Zr447   2.438       .  S
O432        C455   1.293       .  A
O433       Zr446   2.440       .  S
O433        C456   1.294       .  A
O434       Zr448   2.443       .  S
O434        C457   1.293       .  A
O435       Zr448   2.444       .  S
O435        C458   1.293       .  A
O436       Zr446   2.447       .  S
O436        C457   1.295       .  A
O437       Zr447   2.439       .  S
O437        C458   1.293       .  A
O438       Zr444   2.416       .  S
O438        C453   1.288       .  A
O439       Zr445   2.447       .  S
O439        C456   1.294       .  A
O440       Zr445   2.454       .  S
O440        C455   1.296       .  A
O441       Zr444   2.426       .  S
O441        C454   1.290       .  A
O442       Zr448   2.427       .  S
O442        C451   1.290       .  A
O443       Zr448   2.423       .  S
O443        C452   1.289       .  A
Zr444       O450   2.338   1_554  S
Zr444       O462   2.331   1_554  S
Zr445       O449   2.338       .  S
Zr445       O460   2.341       .  S
Zr446       O450   2.338       .  S
Zr446       O460   2.352       .  S
Zr447       O449   2.338       .  S
Zr447       O462   2.344       .  S
Zr448       O449   2.338       .  S
Zr448       O450   2.337       .  S
Zr448       O462   2.337       .  S
Zr448       O460   2.341       .  S
C451       C2165   1.475       .  S
C452       C1550   1.489       .  S
C453       C1109   1.467       .  S
C454       C1205   1.480       .  S
C455       C1253   1.488       .  S
C456       C1166   1.494       .  S
C457       C1190   1.487       .  S
C458       C1229   1.489       .  S
H459        O460   0.966       .  S
H461        O462   0.966       .  S
O463       Zr499   2.428       .  S
O463        C474   1.290   1_556  A
O464       Zr498   2.434       .  S
O464        C475   1.293       .  A
O465       Zr471   2.436       .  S
O465        C476   1.293       .  A
O466       Zr471   2.444       .  S
O466        C477   1.293       .  A
O467       Zr501   2.449       .  S
O467        C477   1.294       .  A
O468       Zr500   2.415       .  S
O468        C476   1.288       .  A
O469       Zr471   2.439       .  S
O469        C475   1.293       .  A
O470       Zr471   2.460       .  S
O470        C474   1.297       .  A
Zr471       O472   2.341       .  S
Zr471       O473   2.337       .  S
Zr471       O481   2.337       .  S
Zr471       O479   2.356       .  S
O472       Zr498   2.347       .  S
O472       Zr501   2.337       .  S
O473       Zr499   2.333   1_554  S
O473       Zr500   2.338       .  S
C474       C2357   1.490       .  S
C475       C1358   1.483       .  S
C476        C965   1.475       .  S
C477       C1061   1.485       .  S
H478        O479   0.966       .  S
O479       Zr498   2.352       .  S
O479       Zr500   2.335       .  S
H480        O481   0.966       .  S
O481       Zr499   2.341   1_554  S
O481       Zr501   2.331       .  S
O482       Zr498   2.458       .  S
O482        C505   1.297       .  A
O483       Zr499   2.432       .  S
O483        C506   1.292       .  A
O484       Zr500   2.441       .  S
O484        C507   1.292       .  A
O485       Zr501   2.426       .  S
O485        C508   1.291       .  A
O486       Zr501   2.435   1_556  S
O486        C509   1.292       .  A
O487       Zr500   2.447   1_556  S
O487        C510   1.294       .  A
O488       Zr502   2.431       .  S
O488        C511   1.291       .  A
O489       Zr502   2.432       .  S
O489        C512   1.291       .  A
O490       Zr500   2.420   1_556  S
O490        C511   1.289       .  A
O491       Zr501   2.441   1_556  S
O491        C512   1.294       .  A
O492       Zr498   2.457       .  S
O492        C507   1.296       .  A
O493       Zr499   2.440       .  S
O493        C510   1.293       .  A
O494       Zr499   2.427       .  S
O494        C509   1.291       .  A
O495       Zr498   2.447       .  S
O495        C508   1.294       .  A
O496       Zr502   2.449       .  S
O496        C505   1.295   1_556  A
O497       Zr502   2.454       .  S
O497        C506   1.295       .  A
Zr498       O504   2.334       .  S
Zr498       O516   2.343       .  S
Zr499       O503   2.338       .  S
Zr499       O514   2.339       .  S
Zr500       O504   2.340       .  S
Zr500       O514   2.329   1_554  S
Zr501       O503   2.343   1_554  S
Zr501       O516   2.336       .  S
Zr502       O503   2.339       .  S
Zr502       O504   2.338   1_556  S
Zr502       O516   2.344   1_556  S
Zr502       O514   2.343       .  S
C505       C2222   1.501       .  S
C506       C1502   1.494       .  S
C507        C941   1.486       .  S
C508       C1085   1.482       .  S
C509       C1037   1.482       .  S
C510        C989   1.489       .  S
C511        C926   1.471       .  S
C512       C1013   1.490       .  S
H513        O514   0.966       .  S
H515        O516   0.965       .  S
C517        C518   1.549   1_655  S
C517        C523   1.529   1_655  S
C517        C521   1.536       .  S
C517       C1853   1.533       .  S
C518        H525   1.082       .  S
C518        C519   1.370       .  D
C519        C520   1.540       .  S
C519        C998   1.486       .  S
C520        C524   1.538       .  S
C520        C522   1.546   1_455  S
C520        H526   1.109       .  S
C521        H527   1.086       .  S
C521        C522   1.370       .  D
C522       C1262   1.495       .  S
C523        H528   1.087       .  S
C523        C524   1.356       .  D
C524        C902   1.472       .  S
C529        C530   1.535       .  S
C529        C535   1.534       .  S
C529        C533   1.546   1_655  S
C529       C1622   1.534       .  S
C530        H537   1.086       .  S
C530        C531   1.368       .  D
C531        C532   1.536       .  S
C531       C1238   1.483       .  S
C532        C536   1.537       .  S
C532        C534   1.531   1_655  S
C532        H538   1.109       .  S
C533        H539   1.081       .  S
C533        C534   1.367       .  D
C534        C917   1.476       .  S
C535        H540   1.087   1_655  S
C535        C536   1.365       .  D
C536        C869   1.482   1_655  S
C541        C542   1.542       .  S
C541        C547   1.529       .  S
C541        C545   1.547       .  S
C541       C2909   1.529       .  S
C542        H549   1.083       .  S
C542        C543   1.364       .  D
C543        C544   1.533       .  S
C543       C1046   1.468       .  S
C544        C548   1.530       .  S
C544        C546   1.532       .  S
C544        H550   1.111       .  S
C545        H551   1.086       .  S
C545        C546   1.368       .  D
C546       C1157   1.479       .  S
C547        H552   1.087       .  S
C547        C548   1.361       .  D
C548        C845   1.473       .  S
C553        C554   1.552       .  S
C553        C559   1.530       .  S
C553        C557   1.537       .  S
C553       C2549   1.543       .  S
C554        H561   1.081       .  S
C554        C555   1.374       .  D
C555        C556   1.540       .  S
C555       C1142   1.491       .  S
C556        C560   1.542       .  S
C556        C558   1.546       .  S
C556        H562   1.110       .  S
C557        H563   1.086       .  S
C557        C558   1.369       .  D
C558       C1070   1.495       .  S
C559        H564   1.087       .  S
C559        C560   1.361       .  D
C560        C830   1.484       .  S
C565        C566   1.542   1_655  S
C565        C571   1.527       .  S
C565        C569   1.536       .  S
C565       C1598   1.532       .  S
C566        H573   1.081       .  S
C566        C567   1.373       .  D
C567        C568   1.547   1_455  S
C567        C950   1.496       .  S
C568        C572   1.542       .  S
C568        C570   1.540       .  S
C568        H574   1.109       .  S
C569        H575   1.086       .  S
C569        C570   1.368       .  D
C570       C1214   1.485       .  S
C571        H576   1.087       .  S
C571        C572   1.358       .  D
C572        C797   1.481       .  S
C577        C578   1.541       .  S
C577        C583   1.532       .  S
C577        C581   1.544   1_655  S
C577       C1829   1.526       .  S
C578        H585   1.084       .  S
C578        C579   1.362       .  D
C579        C580   1.527       .  S
C579       C1286   1.465       .  S
C580        C584   1.527       .  S
C580        C582   1.532   1_655  S
C580        H586   1.111   1_655  S
C581        H587   1.085       .  S
C581        C582   1.366       .  D
C582        C974   1.470       .  S
C583        H588   1.086       .  S
C583        C584   1.362       .  D
C584        C773   1.471       .  S
C589        C590   1.547       .  S
C589        C595   1.529       .  S
C589        C593   1.531       .  S
C589       C2894   1.532       .  S
C590        H597   1.082       .  S
C590        C591   1.367       .  D
C591        C592   1.541       .  S
C591       C1181   1.481       .  S
C592        C596   1.553       .  S
C592        C594   1.544       .  S
C592        H598   1.107       .  S
C593        H599   1.086       .  S
C593        C594   1.363       .  D
C594       C1022   1.479       .  S
C595        H600   1.085       .  S
C595        C596   1.367       .  D
C596        C749   1.504       .  S
C601        C602   1.541       .  S
C601        C607   1.529       .  S
C601        C605   1.538       .  S
C601       C2525   1.526       .  S
C602        H609   1.085       .  S
C602        C603   1.365       .  D
C603        C604   1.538       .  S
C603       C1094   1.479       .  S
C604        C608   1.533       .  S
C604        C606   1.543       .  S
C604        H610   1.109       .  S
C605        H611   1.083       .  S
C605        C606   1.369       .  D
C606       C1118   1.487       .  S
C607        H612   1.086       .  S
C607        C608   1.362       .  D
C608        C734   1.481       .  S
O613       Zr649   2.452       .  S
O613        C624   1.294       .  A
O614       Zr648   2.456       .  S
O614        C625   1.295       .  A
O615       Zr621   2.456       .  S
O615        C626   1.295       .  A
O616       Zr621   2.480       .  S
O616        C627   1.300       .  A
O617       Zr651   2.409       .  S
O617        C627   1.287       .  A
O618       Zr650   2.436       .  S
O618        C626   1.292       .  A
O619       Zr621   2.419       .  S
O619        C625   1.290       .  A
O620       Zr621   2.424       .  S
O620        C624   1.289       .  A
Zr621       O622   2.337       .  S
Zr621       O623   2.336       .  S
Zr621       O631   2.338       .  S
Zr621       O629   2.351       .  S
O622       Zr648   2.348       .  S
O622       Zr651   2.330       .  S
O623       Zr649   2.335       .  S
O623       Zr650   2.328       .  S
C624       C2717   1.467       .  S
C625        C725   1.481       .  S
C626       C2141   1.489       .  S
C627       C1430   1.483       .  S
H628        O629   0.966       .  S
O629       Zr648   2.351       .  S
O629       Zr650   2.350       .  S
H630        O631   0.966       .  S
O631       Zr649   2.336       .  S
O631       Zr651   2.344       .  S
O632       Zr648   2.486       .  S
O632        C655   1.300       .  A
O633       Zr649   2.443       .  S
O633        C656   1.293       .  A
O634       Zr650   2.442       .  S
O634        C657   1.292       .  A
O635       Zr651   2.460       .  S
O635        C658   1.295       .  A
O636       Zr651   2.444       .  S
O636        C659   1.293       .  A
O637       Zr650   2.476       .  S
O637        C660   1.298       .  A
O638       Zr652   2.477       .  S
O638        C661   1.298       .  A
O639       Zr652   2.452       .  S
O639        C662   1.295       .  A
O640       Zr650   2.411       .  S
O640        C661   1.287       .  A
O641       Zr651   2.415       .  S
O641        C662   1.289       .  A
O642       Zr648   2.430       .  S
O642        C657   1.292       .  A
O643       Zr649   2.407       .  S
O643        C660   1.287       .  A
O644       Zr649   2.433       .  S
O644        C659   1.292       .  A
O645       Zr648   2.420       .  S
O645        C658   1.289       .  A
O646       Zr652   2.397       .  S
O646        C655   1.285       .  A
O647       Zr652   2.405       .  S
O647        C656   1.288       .  A
Zr648       O654   2.337       .  S
Zr648       O666   2.330       .  S
Zr649       O653   2.335       .  S
Zr649       O664   2.346       .  S
Zr650       O654   2.345       .  S
Zr650       O664   2.343       .  S
Zr651       O653   2.342       .  S
Zr651       O666   2.338       .  S
Zr652       O653   2.341       .  S
Zr652       O654   2.329       .  S
Zr652       O666   2.343       .  S
Zr652       O664   2.339       .  S
C655       C2102   1.481       .  S
C656        C854   1.474       .  S
C657       C1382   1.473       .  S
C658        C821   1.479       .  S
C659       C1574   1.477       .  S
C660        C758   1.483       .  S
C661       C1517   1.486       .  S
C662       C2285   1.479       .  S
H663        O664   0.966       .  S
H665        O666   0.965       .  S
O667       Zr703   2.475       .  S
O667        C678   1.298       .  A
O668       Zr702   2.439   1_455  S
O668        C679   1.291       .  A
O669       Zr675   2.467       .  S
O669        C680   1.297       .  A
O670       Zr675   2.452   1_545  S
O670        C681   1.295       .  A
O671       Zr705   2.433   1_556  S
O671        C681   1.293       .  A
O672       Zr704   2.405       .  S
O672        C680   1.286   1_655  A
O673       Zr675   2.432   1_545  S
O673        C679   1.291       .  A
O674       Zr675   2.420       .  S
O674        C678   1.289   1_556  A
Zr675       O676   2.342   1_565  S
Zr675       O677   2.333       .  S
Zr675       O685   2.349   1_566  S
Zr675       O683   2.343   1_455  S
O676       Zr702   2.343   1_455  S
O676       Zr705   2.344   1_556  S
O677       Zr703   2.330   1_556  S
O677       Zr704   2.341   1_455  S
C678       C2390   1.486       .  S
C679       C1301   1.466       .  S
C680        C893   1.473       .  S
C681       C2237   1.485       .  S
H682        O683   0.966       .  S
O683       Zr702   2.345   1_565  S
O683       Zr704   2.337       .  S
H684        O685   0.966       .  S
O685       Zr703   2.339   1_545  S
O685       Zr705   2.338       .  S
O686       Zr702   2.464       .  S
O686        C709   1.295       .  A
O687       Zr703   2.454   1_655  S
O687        C710   1.295       .  A
O688       Zr704   2.464       .  S
O688        C711   1.296       .  A
O689       Zr705   2.450   1_556  S
O689        C712   1.294       .  A
O690       Zr705   2.478       .  S
O690        C713   1.299       .  A
O691       Zr704   2.441   1_554  S
O691        C714   1.291       .  A
O692       Zr706   2.454   1_565  S
O692        C715   1.294       .  A
O693       Zr706   2.472       .  S
O693        C716   1.297       .  A
O694       Zr704   2.426       .  S
O694        C715   1.290   1_556  A
O695       Zr705   2.415       .  S
O695        C716   1.287   1_455  A
O696       Zr702   2.411       .  S
O696        C711   1.287   1_545  A
O697       Zr703   2.430   1_655  S
O697        C714   1.292       .  A
O698       Zr703   2.404       .  S
O698        C713   1.287   1_565  A
O699       Zr702   2.421       .  S
O699        C712   1.290   1_655  A
O700       Zr706   2.416       .  S
O700        C709   1.288   1_554  A
O701       Zr706   2.419       .  S
O701        C710   1.290   1_545  A
Zr702       O708   2.335       .  S
Zr702       O720   2.331       .  S
Zr703       O707   2.342   1_465  S
Zr703       O718   2.343   1_455  S
Zr704       O708   2.334   1_565  S
Zr704       O718   2.346   1_556  S
Zr705       O707   2.331   1_455  S
Zr705       O720   2.351   1_454  S
Zr706       O707   2.336       .  S
Zr706       O708   2.340   1_554  S
Zr706       O720   2.337   1_554  S
Zr706       O718   2.351   1_545  S
C709       C2189   1.474       .  S
C710       C1469   1.474       .  S
C711       C1445   1.477       .  S
C712        C878   1.476       .  S
C713       C1325   1.481       .  S
C714        C782   1.471       .  S
C715       C2333   1.473       .  S
C716        C806   1.470       .  S
H717        O718   0.965       .  S
H719        O720   0.965       .  S
C721        C722   1.400       .  A
C721        C726   1.390       .  A
C721        H731   1.084       .  S
C722        C727   1.482       .  S
C722        C723   1.410       .  A
C723        C724   1.410       .  A
C723        O728   1.372       .  S
C724        C725   1.408       .  A
C724        H729   1.084       .  S
C725        C726   1.411       .  A
C726        O730   1.373       .  S
C727        C732   1.411       .  A
C727        C736   1.402       .  A
O728        H744   0.992       .  S
O730        H741   0.992       .  S
C732        C733   1.407       .  A
C732        O737   1.371       .  S
C733        C734   1.405       .  A
C733        H738   1.084       .  S
C734        C735   1.407       .  A
C735        C736   1.394       .  A
C735        O739   1.373       .  S
C736        H740   1.084       .  S
O737        H742   0.992       .  S
O739        H743   0.992       .  S
C745        C746   1.406       .  A
C745        C750   1.407       .  A
C745        H755   1.082       .  S
C746        C751   1.494       .  S
C746        C747   1.410       .  A
C747        C748   1.395       .  A
C747        O752   1.373       .  S
C748        C749   1.411       .  A
C748        H753   1.082       .  S
C749        C750   1.412       .  A
C750        O754   1.368       .  S
C751        C756   1.416       .  A
C751        C760   1.402       .  A
O752        H768   0.992       .  S
O754        H765   0.992       .  S
C756        C757   1.411       .  A
C756        O761   1.372       .  S
C757        C758   1.405       .  A
C757        H762   1.083       .  S
C758        C759   1.410       .  A
C759        C760   1.392       .  A
C759        O763   1.372       .  S
C760        H764   1.083       .  S
O761        H766   0.992       .  S
O763        H767   0.992       .  S
C769        C770   1.403   1_455  A
C769        C774   1.396       .  A
C769        H779   1.084       .  S
C770        C775   1.473       .  S
C770        C771   1.406       .  A
C771        C772   1.402       .  A
C771        O776   1.371       .  S
C772        C773   1.404       .  A
C772        H777   1.084       .  S
C773        C774   1.404   1_655  A
C774        O778   1.372       .  S
C775        C780   1.405       .  A
C775        C784   1.404       .  A
O776        H792   0.992       .  S
O778        H789   0.992       .  S
C780        C781   1.392       .  A
C780        O785   1.372       .  S
C781        C782   1.400       .  A
C781        H786   1.084       .  S
C782        C783   1.411       .  A
C783        C784   1.406       .  A
C783        O787   1.372   1_554  S
C784        H788   1.084       .  S
O785        H790   0.992       .  S
O787        H791   0.992       .  S
C793        C794   1.398       .  A
C793        C798   1.398       .  A
C793        H803   1.084       .  S
C794        C799   1.476       .  S
C794        C795   1.409       .  A
C795        C796   1.405       .  A
C795        O800   1.371   1_655  S
C796        C797   1.402       .  A
C796        H801   1.083   1_655  S
C797        C798   1.412       .  A
C798        O802   1.373       .  S
C799        C804   1.406       .  A
C799        C808   1.402       .  A
O800        H816   0.992       .  S
O802        H813   0.992       .  S
C804        C805   1.399       .  A
C804        O809   1.372       .  S
C805        C806   1.401       .  A
C805        H810   1.083       .  S
C806        C807   1.410       .  A
C807        C808   1.404       .  A
C807        O811   1.372       .  S
C808        H812   1.083       .  S
O809        H814   0.992   1_655  S
O811        H815   0.992       .  S
C817        C818   1.401       .  A
C817        C822   1.396       .  A
C817        H827   1.084       .  S
C818        C823   1.484       .  S
C818        C819   1.410       .  A
C819        C820   1.407       .  A
C819        O824   1.371       .  S
C820        C821   1.406       .  A
C820        H825   1.084       .  S
C821        C822   1.409       .  A
C822        O826   1.371       .  S
C823        C828   1.411       .  A
C823        C832   1.402       .  A
O824        H840   0.992       .  S
O826        H837   0.992       .  S
C828        C829   1.401       .  A
C828        O833   1.371       .  S
C829        C830   1.399       .  A
C829        H834   1.081       .  S
C830        C831   1.413       .  A
C831        C832   1.402       .  A
C831        O835   1.372       .  S
C832        H836   1.084       .  S
O833        H838   0.992       .  S
O835        H839   0.992       .  S
C841        C842   1.399       .  A
C841        C846   1.391       .  A
C841        H851   1.084       .  S
C842        C847   1.471       .  S
C842        C843   1.408       .  A
C843        C844   1.400       .  A
C843        O848   1.372       .  S
C844        C845   1.402       .  A
C844        H849   1.083       .  S
C845        C846   1.409       .  A
C846        O850   1.372       .  S
C847        C852   1.405       .  A
C847        C856   1.402       .  A
O848        H864   0.992       .  S
O850        H861   0.991       .  S
C852        C853   1.388       .  A
C852        O857   1.373       .  S
C853        C854   1.405       .  A
C853        H858   1.084       .  S
C854        C855   1.411       .  A
C855        C856   1.401       .  A
C855        O859   1.371       .  S
C856        H860   1.083       .  S
O857        H862   0.992       .  S
O859        H863   0.992       .  S
C865        C866   1.405   1_655  A
C865        C870   1.403       .  A
C865        H875   1.083       .  S
C866        C871   1.482       .  S
C866        C867   1.407       .  A
C867        C868   1.396       .  A
C867        O872   1.372       .  S
C868        C869   1.404       .  A
C868        H873   1.084       .  S
C869        C870   1.407   1_455  A
C870        O874   1.370       .  S
C871        C876   1.410       .  A
C871        C880   1.402       .  A
O872        H888   0.992       .  S
O874        H885   0.992       .  S
C876        C877   1.404       .  A
C876        O881   1.371       .  S
C877        C878   1.406       .  A
C877        H882   1.084       .  S
C878        C879   1.411       .  A
C879        C880   1.393       .  A
C879        O883   1.373       .  S
C880        H884   1.084       .  S
O881        H886   0.992       .  S
O883        H887   0.992       .  S
C889        C890   1.407       .  A
C889        C894   1.403       .  A
C889        H899   1.083       .  S
C890        C895   1.489       .  S
C890        C891   1.412   1_455  A
C891        C892   1.396       .  A
C891        O896   1.372       .  S
C892        C893   1.402   1_655  A
C892        H897   1.083       .  S
C893        C894   1.407       .  A
C894        O898   1.371       .  S
C895        C900   1.411       .  A
C895        C904   1.408   1_455  A
O896        H912   0.992       .  S
O898        H909   0.992       .  S
C900        C901   1.400       .  A
C900        O905   1.372       .  S
C901        C902   1.401       .  A
C901        H906   1.083       .  S
C902        C903   1.404   1_455  A
C903        C904   1.399       .  A
C903        O907   1.371       .  S
C904        H908   1.083       .  S
O905        H910   0.992       .  S
O907        H911   0.992       .  S
C913        C914   1.401       .  A
C913        C918   1.399       .  A
C913        H923   1.084       .  S
C914        C919   1.468       .  S
C914        C915   1.404       .  A
C915        C916   1.392       .  A
C915        O920   1.372       .  S
C916        C917   1.404       .  A
C916        H921   1.084       .  S
C917        C918   1.410       .  A
C918        O922   1.372       .  S
C919        C924   1.403       .  A
C919        C928   1.401       .  A
O920        H936   0.992       .  S
O922        H933   0.992       .  S
C924        C925   1.396       .  A
C924        O929   1.372       .  S
C925        C926   1.406       .  A
C925        H930   1.084       .  S
C926        C927   1.410       .  A
C927        C928   1.395       .  A
C927        O931   1.372       .  S
C928        H932   1.084       .  S
O929        H934   0.992       .  S
O931        H935   0.992       .  S
C937        C938   1.406       .  A
C937        C942   1.405       .  A
C937        H947   1.084       .  S
C938        C943   1.492       .  S
C938        C939   1.410       .  A
C939        C940   1.404       .  A
C939        O944   1.373       .  S
C940        C941   1.404       .  A
C940        H945   1.084       .  S
C941        C942   1.412       .  A
C942        O946   1.372       .  S
C943        C948   1.408       .  A
C943        C952   1.406       .  A
O944        H960   0.992       .  S
O946        H957   0.992       .  S
C948        C949   1.400       .  A
C948        O953   1.373       .  S
C949        C950   1.405       .  A
C949        H954   1.083       .  S
C950        C951   1.414       .  A
C951        C952   1.407       .  A
C951        O955   1.371       .  S
C952        H956   1.084       .  S
O953        H958   0.992       .  S
O955        H959   0.992   1_455  S
C961        C962   1.398       .  A
C961        C966   1.396       .  A
C961        H971   1.084       .  S
C962        C967   1.464       .  S
C962        C963   1.403       .  A
C963        C964   1.394       .  A
C963        O968   1.372       .  S
C964        C965   1.405       .  A
C964        H969   1.083       .  S
C965        C966   1.415       .  A
C966        O970   1.373       .  S
C967        C972   1.404       .  A
C967        C976   1.400       .  A
O968        H984   0.992       .  S
O970        H981   0.992       .  S
C972        C973   1.395       .  A
C972        O977   1.372       .  S
C973        C974   1.401       .  A
C973        H978   1.084       .  S
C974        C975   1.409       .  A
C975        C976   1.396       .  A
C975        O979   1.372       .  S
C976        H980   1.084       .  S
O977        H982   0.992       .  S
O979        H983   0.992       .  S
C985        C986   1.405       .  A
C985        C990   1.402       .  A
C985        H995   1.083       .  S
C986        C991   1.495       .  S
C986        C987   1.412       .  A
C987        C988   1.402       .  A
C987        O992   1.372       .  S
C988        C989   1.406       .  A
C988        H993   1.083       .  S
C989        C990   1.412       .  A
C990        O994   1.372       .  S
C991        C996   1.413       .  A
C991       C1000   1.406       .  A
O992       H1008   0.991       .  S
O994       H1005   0.992       .  S
C996        C997   1.404       .  A
C996       O1001   1.372       .  S
C997        C998   1.403       .  A
C997       H1002   1.084       .  S
C998        C999   1.407       .  A
C999       C1000   1.402       .  A
C999       O1003   1.371       .  S
C1000      H1004   1.083       .  S
O1001      H1006   0.992       .  S
O1003      H1007   0.992       .  S
C1009      C1010   1.402       .  A
C1009      C1014   1.400       .  A
C1009      H1019   1.084       .  S
C1010      C1015   1.483       .  S
C1010      C1011   1.406       .  A
C1011      C1012   1.400       .  A
C1011      O1016   1.372       .  S
C1012      C1013   1.408       .  A
C1012      H1017   1.083       .  S
C1013      C1014   1.416       .  A
C1014      O1018   1.372       .  S
C1015      C1020   1.408       .  A
C1015      C1024   1.405       .  A
O1016      H1032   0.992       .  S
O1018      H1029   0.992       .  S
C1020      C1021   1.399       .  A
C1020      O1025   1.371       .  S
C1021      C1022   1.403       .  A
C1021      H1026   1.084       .  S
C1022      C1023   1.407       .  A
C1023      C1024   1.402       .  A
C1023      O1027   1.370       .  S
C1024      H1028   1.084       .  S
O1025      H1030   0.992       .  S
O1027      H1031   0.992       .  S
C1033      C1034   1.403       .  A
C1033      C1038   1.399       .  A
C1033      H1043   1.083       .  S
C1034      C1039   1.480       .  S
C1034      C1035   1.406       .  A
C1035      C1036   1.396       .  A
C1035      O1040   1.372       .  S
C1036      C1037   1.407       .  A
C1036      H1041   1.084       .  S
C1037      C1038   1.413       .  A
C1038      O1042   1.372       .  S
C1039      C1044   1.408       .  A
C1039      C1048   1.406       .  A
O1040      H1056   0.992       .  S
O1042      H1053   0.992       .  S
C1044      C1045   1.397       .  A
C1044      O1049   1.372       .  S
C1045      C1046   1.399       .  A
C1045      H1050   1.084       .  S
C1046      C1047   1.404       .  A
C1047      C1048   1.400       .  A
C1047      O1051   1.372       .  S
C1048      H1052   1.084       .  S
O1049      H1054   0.992       .  S
O1051      H1055   0.992       .  S
C1057      C1058   1.407       .  A
C1057      C1062   1.403       .  A
C1057      H1067   1.083       .  S
C1058      C1063   1.494       .  S
C1058      C1059   1.411       .  A
C1059      C1060   1.403       .  A
C1059      O1064   1.371       .  S
C1060      C1061   1.405       .  A
C1060      H1065   1.084       .  S
C1061      C1062   1.411       .  A
C1062      O1066   1.371       .  S
C1063      C1068   1.409       .  A
C1063      C1072   1.407       .  A
O1064      H1080   0.992       .  S
O1066      H1077   0.992       .  S
C1068      C1069   1.401       .  A
C1068      O1073   1.372       .  S
C1069      C1070   1.407       .  A
C1069      H1074   1.083       .  S
C1070      C1071   1.409       .  A
C1071      C1072   1.408       .  A
C1071      O1075   1.370       .  S
C1072      H1076   1.083       .  S
O1073      H1078   0.992       .  S
O1075      H1079   0.992       .  S
C1081      C1082   1.404       .  A
C1081      C1086   1.400       .  A
C1081      H1091   1.083       .  S
C1082      C1087   1.480       .  S
C1082      C1083   1.407       .  A
C1083      C1084   1.397       .  A
C1083      O1088   1.372       .  S
C1084      C1085   1.407       .  A
C1084      H1089   1.084       .  S
C1085      C1086   1.411       .  A
C1086      O1090   1.372       .  S
C1087      C1092   1.408       .  A
C1087      C1096   1.404       .  A
O1088      H1104   0.992       .  S
O1090      H1101   0.992       .  S
C1092      C1093   1.398       .  A
C1092      O1097   1.372       .  S
C1093      C1094   1.401       .  A
C1093      H1098   1.084       .  S
C1094      C1095   1.410       .  A
C1095      C1096   1.399       .  A
C1095      O1099   1.372       .  S
C1096      H1100   1.084       .  S
O1097      H1102   0.992       .  S
O1099      H1103   0.992       .  S
C1105      C1106   1.402       .  A
C1105      C1110   1.393       .  A
C1105      H1115   1.083       .  S
C1106      C1111   1.478       .  S
C1106      C1107   1.410       .  A
C1107      C1108   1.398       .  A
C1107      O1112   1.371       .  S
C1108      C1109   1.401       .  A
C1108      H1113   1.084       .  S
C1109      C1110   1.410       .  A
C1110      O1114   1.372       .  S
C1111      C1116   1.407       .  A
C1111      C1120   1.401       .  A
O1112      H1128   0.992       .  S
O1114      H1125   0.992       .  S
C1116      C1117   1.397       .  A
C1116      O1121   1.373       .  S
C1117      C1118   1.407       .  A
C1117      H1122   1.083       .  S
C1118      C1119   1.413       .  A
C1119      C1120   1.397       .  A
C1119      O1123   1.371       .  S
C1120      H1124   1.084       .  S
O1121      H1126   0.992       .  S
O1123      H1127   0.992       .  S
C1129      C1130   1.402       .  A
C1129      C1134   1.405       .  A
C1129      H1139   1.084       .  S
C1130      C1135   1.488       .  S
C1130      C1131   1.407       .  A
C1131      C1132   1.402       .  A
C1131      O1136   1.371       .  S
C1132      C1133   1.408       .  A
C1132      H1137   1.083       .  S
C1133      C1134   1.418       .  A
C1134      O1138   1.372       .  S
C1135      C1140   1.409       .  A
C1135      C1144   1.403       .  A
O1136      H1152   0.992       .  S
O1138      H1149   0.992       .  S
C1140      C1141   1.405       .  A
C1140      O1145   1.372       .  S
C1141      C1142   1.406       .  A
C1141      H1146   1.084       .  S
C1142      C1143   1.410       .  A
C1143      C1144   1.403       .  A
C1143      O1147   1.372       .  S
C1144      H1148   1.084       .  S
O1145      H1150   0.992       .  S
O1147      H1151   0.992       .  S
C1153      C1154   1.402       .  A
C1153      C1158   1.399       .  A
C1153      H1163   1.084       .  S
C1154      C1159   1.479       .  S
C1154      C1155   1.407       .  A
C1155      C1156   1.401       .  A
C1155      O1160   1.371       .  S
C1156      C1157   1.403       .  A
C1156      H1161   1.084       .  S
C1157      C1158   1.409       .  A
C1158      O1162   1.371       .  S
C1159      C1164   1.403       .  A
C1159      C1168   1.401       .  A
O1160      H1176   0.992       .  S
O1162      H1173   0.991       .  S
C1164      C1165   1.399       .  A
C1164      O1169   1.372       .  S
C1165      C1166   1.411       .  A
C1165      H1170   1.083       .  S
C1166      C1167   1.417       .  A
C1167      C1168   1.402       .  A
C1167      O1171   1.372       .  S
C1168      H1172   1.084       .  S
O1169      H1174   0.992       .  S
O1171      H1175   0.992       .  S
C1177      C1178   1.408       .  A
C1177      C1182   1.405       .  A
C1177      H1187   1.083       .  S
C1178      C1183   1.494       .  S
C1178      C1179   1.413       .  A
C1179      C1180   1.400       .  A
C1179      O1184   1.372       .  S
C1180      C1181   1.400       .  A
C1180      H1185   1.083       .  S
C1181      C1182   1.406       .  A
C1182      O1186   1.371       .  S
C1183      C1188   1.412       .  A
C1183      C1192   1.405       .  A
O1184      H1200   0.992       .  S
O1186      H1197   0.992       .  S
C1188      C1189   1.405       .  A
C1188      O1193   1.372       .  S
C1189      C1190   1.407       .  A
C1189      H1194   1.084       .  S
C1190      C1191   1.412       .  A
C1191      C1192   1.400       .  A
C1191      O1195   1.372       .  S
C1192      H1196   1.083       .  S
O1193      H1198   0.992       .  S
O1195      H1199   0.992       .  S
C1201      C1202   1.403       .  A
C1201      C1206   1.399       .  A
C1201      H1211   1.084       .  S
C1202      C1207   1.480       .  S
C1202      C1203   1.407       .  A
C1203      C1204   1.401       .  A
C1203      O1208   1.371       .  S
C1204      C1205   1.406       .  A
C1204      H1209   1.084       .  S
C1205      C1206   1.412       .  A
C1206      O1210   1.372       .  S
C1207      C1212   1.405       .  A
C1207      C1216   1.405       .  A
O1208      H1224   0.992       .  S
O1210      H1221   0.992       .  S
C1212      C1213   1.396       .  A
C1212      O1217   1.372       .  S
C1213      C1214   1.405       .  A
C1213      H1218   1.083       .  S
C1214      C1215   1.411       .  A
C1215      C1216   1.404       .  A
C1215      O1219   1.372       .  S
C1216      H1220   1.084       .  S
O1217      H1222   0.992       .  S
O1219      H1223   0.992       .  S
C1225      C1226   1.401       .  A
C1225      C1230   1.399       .  A
C1225      H1235   1.084       .  S
C1226      C1231   1.480       .  S
C1226      C1227   1.406       .  A
C1227      C1228   1.401       .  A
C1227      O1232   1.372       .  S
C1228      C1229   1.409       .  A
C1228      H1233   1.083       .  S
C1229      C1230   1.414       .  A
C1230      O1234   1.371       .  S
C1231      C1236   1.408       .  A
C1231      C1240   1.401       .  A
O1232      H1248   0.992       .  S
O1234      H1245   0.992       .  S
C1236      C1237   1.402       .  A
C1236      O1241   1.372       .  S
C1237      C1238   1.402       .  A
C1237      H1242   1.081       .  S
C1238      C1239   1.412       .  A
C1239      C1240   1.398       .  A
C1239      O1243   1.372       .  S
C1240      H1244   1.084       .  S
O1241      H1246   0.992       .  S
O1243      H1247   0.992       .  S
C1249      C1250   1.404       .  A
C1249      C1254   1.401       .  A
C1249      H1259   1.084       .  S
C1250      C1255   1.487       .  S
C1250      C1251   1.408       .  A
C1251      C1252   1.403       .  A
C1251      O1256   1.372       .  S
C1252      C1253   1.408       .  A
C1252      H1257   1.083       .  S
C1253      C1254   1.411       .  A
C1254      O1258   1.372       .  S
C1255      C1260   1.407       .  A
C1255      C1264   1.405       .  A
O1256      H1272   0.992       .  S
O1258      H1269   0.992       .  S
C1260      C1261   1.398       .  A
C1260      O1265   1.372       .  S
C1261      C1262   1.408       .  A
C1261      H1266   1.083       .  S
C1262      C1263   1.411       .  A
C1263      C1264   1.406       .  A
C1263      O1267   1.371       .  S
C1264      H1268   1.084       .  S
O1265      H1270   0.992       .  S
O1267      H1271   0.992       .  S
C1273      C1274   1.404       .  A
C1273      C1278   1.396       .  A
C1273      H1283   1.083       .  S
C1274      C1279   1.481       .  S
C1274      C1275   1.410       .  A
C1275      C1276   1.395       .  A
C1275      O1280   1.372       .  S
C1276      C1277   1.404       .  A
C1276      H1281   1.084       .  S
C1277      C1278   1.409       .  A
C1278      O1282   1.372       .  S
C1279      C1284   1.411       .  A
C1279      C1288   1.406       .  A
O1280      H1296   0.992       .  S
O1282      H1293   0.991       .  S
C1284      C1285   1.396       .  A
C1284      O1289   1.373       .  S
C1285      C1286   1.398       .  A
C1285      H1290   1.084       .  S
C1286      C1287   1.403       .  A
C1287      C1288   1.395       .  A
C1287      O1291   1.372       .  S
C1288      H1292   1.083       .  S
O1289      H1294   0.992       .  S
O1291      H1295   0.992       .  S
C1297      C1298   1.402       .  A
C1297      C1302   1.396       .  A
C1297      H1307   1.084       .  S
C1298      C1303   1.472       .  S
C1298      C1299   1.406       .  A
C1299      C1300   1.400       .  A
C1299      O1304   1.372       .  S
C1300      C1301   1.403       .  A
C1300      H1305   1.084   1_455  S
C1301      C1302   1.406       .  A
C1302      O1306   1.372       .  S
C1303      C1308   1.406       .  A
C1303      C1312   1.403   1_545  A
O1304      H1320   0.992       .  S
O1306      H1317   0.992       .  S
C1308      C1309   1.398       .  A
C1308      O1313   1.372       .  S
C1309      C1310   1.401       .  A
C1309      H1314   1.083       .  S
C1310      C1311   1.404   1_545  A
C1311      C1312   1.398       .  A
C1311      O1315   1.371       .  S
C1312      H1316   1.084       .  S
O1313      H1318   0.992       .  S
O1315      H1319   0.992       .  S
C1321      C1322   1.406       .  A
C1321      C1326   1.406       .  A
C1321      H1331   1.083       .  S
C1322      C1327   1.486       .  S
C1322      C1323   1.409       .  A
C1323      C1324   1.395       .  A
C1323      O1328   1.372   1_545  S
C1324      C1325   1.404       .  A
C1324      H1329   1.083   1_545  S
C1325      C1326   1.410       .  A
C1326      O1330   1.370       .  S
C1327      C1332   1.409       .  A
C1327      C1336   1.408       .  A
O1328      H1344   0.992       .  S
O1330      H1341   0.991       .  S
C1332      C1333   1.400       .  A
C1332      O1337   1.371       .  S
C1333      C1334   1.403       .  A
C1333      H1338   1.084       .  S
C1334      C1335   1.402       .  A
C1335      C1336   1.400       .  A
C1335      O1339   1.372   1_545  S
C1336      H1340   1.083   1_545  S
O1337      H1342   0.992       .  S
O1339      H1343   0.992       .  S
C1345      C1346   1.401       .  A
C1345      C1350   1.399       .  A
C1345      H1355   1.084       .  S
C1346      C1351   1.476       .  S
C1346      C1347   1.402       .  A
C1347      C1348   1.394       .  A
C1347      O1352   1.372       .  S
C1348      C1349   1.412       .  A
C1348      H1353   1.077       .  S
C1349      C1350   1.417       .  A
C1350      O1354   1.372       .  S
C1351      C1356   1.405       .  A
C1351      C1360   1.401       .  A
O1352      H1368   0.992       .  S
O1354      H1365   0.991       .  S
C1356      C1357   1.398       .  A
C1356      O1361   1.372       .  S
C1357      C1358   1.408       .  A
C1357      H1362   1.083       .  S
C1358      C1359   1.413       .  A
C1359      C1360   1.397       .  A
C1359      O1363   1.372       .  S
C1360      H1364   1.084       .  S
O1361      H1366   0.992       .  S
O1363      H1367   0.992       .  S
C1369      C1370   1.402       .  A
C1369      C1374   1.402       .  A
C1369      H1379   1.084       .  S
C1370      C1375   1.472       .  S
C1370      C1371   1.405       .  A
C1371      C1372   1.398       .  A
C1371      O1376   1.372       .  S
C1372      C1373   1.402       .  A
C1372      H1377   1.083       .  S
C1373      C1374   1.405       .  A
C1374      O1378   1.373       .  S
C1375      C1380   1.405       .  A
C1375      C1384   1.403       .  A
O1376      H1392   0.992       .  S
O1378      H1389   0.992       .  S
C1380      C1381   1.393       .  A
C1380      O1385   1.372       .  S
C1381      C1382   1.402       .  A
C1381      H1386   1.084       .  S
C1382      C1383   1.412       .  A
C1383      C1384   1.405       .  A
C1383      O1387   1.372       .  S
C1384      H1388   1.084       .  S
O1385      H1390   0.992       .  S
O1387      H1391   0.992       .  S
C1393      C1394   1.402       .  A
C1393      C1398   1.404       .  A
C1393      H1403   1.083       .  S
C1394      C1399   1.478       .  S
C1394      C1395   1.402       .  A
C1395      C1396   1.392       .  A
C1395      O1400   1.372       .  S
C1396      C1397   1.414       .  A
C1396      H1401   1.074       .  S
C1397      C1398   1.417       .  A
C1398      O1402   1.373       .  S
C1399      C1404   1.405       .  A
C1399      C1408   1.402       .  A
O1400      H1416   0.992       .  S
O1402      H1413   0.992       .  S
C1404      C1405   1.398       .  A
C1404      O1409   1.372       .  S
C1405      C1406   1.408       .  A
C1405      H1410   1.083       .  S
C1406      C1407   1.414       .  A
C1407      C1408   1.398       .  A
C1407      O1411   1.372       .  S
C1408      H1412   1.084       .  S
O1409      H1414   0.992       .  S
O1411      H1415   0.992       .  S
C1417      C1418   1.401       .  A
C1417      C1422   1.399       .  A
C1417      H1427   1.084       .  S
C1418      C1423   1.488       .  S
C1418      C1419   1.414       .  A
C1419      C1420   1.407       .  A
C1419      O1424   1.373       .  S
C1420      C1421   1.399       .  A
C1420      H1425   1.084       .  S
C1421      C1422   1.412       .  A
C1422      O1426   1.372       .  S
C1423      C1428   1.408       .  A
C1423      C1432   1.407       .  A
O1424      H1440   0.992       .  S
O1426      H1437   0.992       .  S
C1428      C1429   1.399       .  A
C1428      O1433   1.373       .  S
C1429      C1430   1.405       .  A
C1429      H1434   1.084       .  S
C1430      C1431   1.410       .  A
C1431      C1432   1.408       .  A
C1431      O1435   1.371       .  S
C1432      H1436   1.083       .  S
O1433      H1438   0.992       .  S
O1435      H1439   0.992       .  S
C1441      C1442   1.403       .  A
C1441      C1446   1.404       .  A
C1441      H1451   1.083       .  S
C1442      C1447   1.477       .  S
C1442      C1443   1.406   1_565  A
C1443      C1444   1.397       .  A
C1443      O1448   1.373       .  S
C1444      C1445   1.405   1_545  A
C1444      H1449   1.084       .  S
C1445      C1446   1.409       .  A
C1446      O1450   1.370       .  S
C1447      C1452   1.410   1_565  A
C1447      C1456   1.399       .  A
O1448      H1464   0.992       .  S
O1450      H1461   0.992       .  S
C1452      C1453   1.401       .  A
C1452      O1457   1.371       .  S
C1453      C1454   1.400   1_545  A
C1453      H1458   1.084       .  S
C1454      C1455   1.413       .  A
C1455      C1456   1.398       .  A
C1455      O1459   1.372       .  S
C1456      H1460   1.084       .  S
O1457      H1462   0.992       .  S
O1459      H1463   0.991       .  S
C1465      C1466   1.402       .  A
C1465      C1470   1.395       .  A
C1465      H1475   1.084       .  S
C1466      C1471   1.477       .  S
C1466      C1467   1.407       .  A
C1467      C1468   1.404       .  A
C1467      O1472   1.371       .  S
C1468      C1469   1.405       .  A
C1468      H1473   1.084       .  S
C1469      C1470   1.409       .  A
C1470      O1474   1.372       .  S
C1471      C1476   1.409   1_565  A
C1471      C1480   1.402       .  A
O1472      H1488   0.992   1_565  S
O1474      H1485   0.992       .  S
C1476      C1477   1.402       .  A
C1476      O1481   1.372       .  S
C1477      C1478   1.400       .  A
C1477      H1482   1.084       .  S
C1478      C1479   1.406   1_545  A
C1479      C1480   1.398       .  A
C1479      O1483   1.372       .  S
C1480      H1484   1.084       .  S
O1481      H1486   0.992       .  S
O1483      H1487   0.992       .  S
C1489      C1490   1.404       .  A
C1489      C1494   1.408       .  A
C1489      H1499   1.083       .  S
C1490      C1495   1.487       .  S
C1490      C1491   1.404       .  A
C1491      C1492   1.396       .  A
C1491      O1496   1.372       .  S
C1492      C1493   1.412       .  A
C1492      H1497   1.083       .  S
C1493      C1494   1.420       .  A
C1494      O1498   1.371       .  S
C1495      C1500   1.406       .  A
C1495      C1504   1.404       .  A
O1496      H1512   0.992       .  S
O1498      H1509   0.992       .  S
C1500      C1501   1.401       .  A
C1500      O1505   1.372       .  S
C1501      C1502   1.411       .  A
C1501      H1506   1.083       .  S
C1502      C1503   1.414       .  A
C1503      C1504   1.401       .  A
C1503      O1507   1.371       .  S
C1504      H1508   1.083       .  S
O1505      H1510   0.992       .  S
O1507      H1511   0.992       .  S
C1513      C1514   1.402       .  A
C1513      C1518   1.398       .  A
C1513      H1523   1.083       .  S
C1514      C1519   1.491       .  S
C1514      C1515   1.412       .  A
C1515      C1516   1.408       .  A
C1515      O1520   1.372       .  S
C1516      C1517   1.404       .  A
C1516      H1521   1.077       .  S
C1517      C1518   1.411       .  A
C1518      O1522   1.373       .  S
C1519      C1524   1.414       .  A
C1519      C1528   1.403       .  A
O1520      H1536   0.992       .  S
O1522      H1533   0.992       .  S
C1524      C1525   1.405       .  A
C1524      O1529   1.373       .  S
C1525      C1526   1.399       .  A
C1525      H1530   1.082       .  S
C1526      C1527   1.410       .  A
C1527      C1528   1.402       .  A
C1527      O1531   1.373       .  S
C1528      H1532   1.083       .  S
O1529      H1534   0.992       .  S
O1531      H1535   0.992       .  S
C1537      C1538   1.400       .  A
C1537      C1542   1.398       .  A
C1537      H1547   1.084       .  S
C1538      C1543   1.479       .  S
C1538      C1539   1.404       .  A
C1539      C1540   1.399       .  A
C1539      O1544   1.373       .  S
C1540      C1541   1.413       .  A
C1540      H1545   1.076       .  S
C1541      C1542   1.415       .  A
C1542      O1546   1.372       .  S
C1543      C1548   1.408       .  A
C1543      C1552   1.400       .  A
O1544      H1560   0.992       .  S
O1546      H1557   0.992       .  S
C1548      C1549   1.399       .  A
C1548      O1553   1.372       .  S
C1549      C1550   1.407       .  A
C1549      H1554   1.083       .  S
C1550      C1551   1.418       .  A
C1551      C1552   1.398       .  A
C1551      O1555   1.372       .  S
C1552      H1556   1.084       .  S
O1553      H1558   0.992       .  S
O1555      H1559   0.992       .  S
C1561      C1562   1.407       .  A
C1561      C1566   1.403       .  A
C1561      H1571   1.083       .  S
C1562      C1567   1.485       .  S
C1562      C1563   1.409       .  A
C1563      C1564   1.397       .  A
C1563      O1568   1.372       .  S
C1564      C1565   1.403       .  A
C1564      H1569   1.084       .  S
C1565      C1566   1.406       .  A
C1566      O1570   1.372       .  S
C1567      C1572   1.410       .  A
C1567      C1576   1.404       .  A
O1568      H1584   0.992       .  S
O1570      H1581   0.992       .  S
C1572      C1573   1.406       .  A
C1572      O1577   1.372       .  S
C1573      C1574   1.406       .  A
C1573      H1578   1.084       .  S
C1574      C1575   1.408       .  A
C1575      C1576   1.395       .  A
C1575      O1579   1.373       .  S
C1576      H1580   1.084       .  S
O1577      H1582   0.992       .  S
O1579      H1583   0.992       .  S
C1585      C1586   1.402   1_455  A
C1585      C1590   1.398       .  A
C1585      H1595   1.083       .  S
C1586      C1591   1.486       .  S
C1586      C1587   1.410       .  A
C1587      C1588   1.401       .  A
C1587      O1592   1.372       .  S
C1588      C1589   1.408       .  A
C1588      H1593   1.083       .  S
C1589      C1590   1.414   1_655  A
C1590      O1594   1.372       .  S
C1591      C1596   1.410   1_655  A
C1591      C1600   1.400       .  A
O1592      H1608   0.992       .  S
O1594      H1605   0.992       .  S
C1596      C1597   1.400       .  A
C1596      O1601   1.372       .  S
C1597      C1598   1.410   1_455  A
C1597      H1602   1.077       .  S
C1598      C1599   1.418       .  A
C1599      C1600   1.397       .  A
C1599      O1603   1.372       .  S
C1600      H1604   1.083       .  S
O1601      H1606   0.992       .  S
O1603      H1607   0.992       .  S
C1609      C1610   1.399       .  A
C1609      C1614   1.396       .  A
C1609      H1619   1.084       .  S
C1610      C1615   1.483       .  S
C1610      C1611   1.410   1_655  A
C1611      C1612   1.404       .  A
C1611      O1616   1.373       .  S
C1612      C1613   1.407   1_455  A
C1612      H1617   1.083       .  S
C1613      C1614   1.417       .  A
C1614      O1618   1.372       .  S
C1615      C1620   1.404   1_655  A
C1615      C1624   1.402       .  A
O1616      H1632   0.992       .  S
O1618      H1629   0.992       .  S
C1620      C1621   1.399       .  A
C1620      O1625   1.372       .  S
C1621      C1622   1.413   1_455  A
C1621      H1626   1.076       .  S
C1622      C1623   1.416       .  A
C1623      C1624   1.400       .  A
C1623      O1627   1.372       .  S
C1624      H1628   1.084       .  S
O1625      H1630   0.992       .  S
O1627      H1631   0.992       .  S
C1633      C1634   1.405       .  A
C1633      C1638   1.400       .  A
C1633      H1643   1.083       .  S
C1634      C1639   1.491       .  S
C1634      C1635   1.411       .  A
C1635      C1636   1.401       .  A
C1635      O1640   1.372       .  S
C1636      C1637   1.405       .  A
C1636      H1641   1.083       .  S
C1637      C1638   1.412       .  A
C1638      O1642   1.371       .  S
C1639      C1644   1.411       .  A
C1639      C1648   1.405       .  A
O1640      H1656   0.992       .  S
O1642      H1653   0.992       .  S
C1644      C1645   1.403       .  A
C1644      O1649   1.373       .  S
C1645      C1646   1.405       .  A
C1645      H1650   1.083       .  S
C1646      C1647   1.411       .  A
C1647      C1648   1.401       .  A
C1647      O1651   1.372       .  S
C1648      H1652   1.083       .  S
O1649      H1654   0.992       .  S
O1651      H1655   0.992       .  S
C1657      C1658   1.407       .  A
C1657      C1662   1.402       .  A
C1657      H1667   1.083       .  S
C1658      C1663   1.489       .  S
C1658      C1659   1.412       .  A
C1659      C1660   1.397       .  A
C1659      O1664   1.372       .  S
C1660      C1661   1.401       .  A
C1660      H1665   1.084       .  S
C1661      C1662   1.409       .  A
C1662      O1666   1.372       .  S
C1663      C1668   1.413       .  A
C1663      C1672   1.404       .  A
O1664      H1680   0.992       .  S
O1666      H1677   0.992       .  S
C1668      C1669   1.402       .  A
C1668      O1673   1.372       .  S
C1669      C1670   1.404       .  A
C1669      H1674   1.083       .  S
C1670      C1671   1.410       .  A
C1671      C1672   1.396       .  A
C1671      O1675   1.373       .  S
C1672      H1676   1.083       .  S
O1673      H1678   0.992       .  S
O1675      H1679   0.992       .  S
C1681      C1682   1.404       .  A
C1681      C1686   1.404       .  A
C1681      H1691   1.083       .  S
C1682      C1687   1.494       .  S
C1682      C1683   1.409       .  A
C1683      C1684   1.405       .  A
C1683      O1688   1.372       .  S
C1684      C1685   1.408       .  A
C1684      H1689   1.080       .  S
C1685      C1686   1.416       .  A
C1686      O1690   1.372       .  S
C1687      C1692   1.408       .  A
C1687      C1696   1.405       .  A
O1688      H1704   0.992       .  S
O1690      H1701   0.992       .  S
C1692      C1693   1.401       .  A
C1692      O1697   1.372       .  S
C1693      C1694   1.411       .  A
C1693      H1698   1.082       .  S
C1694      C1695   1.415       .  A
C1695      C1696   1.408       .  A
C1695      O1699   1.370       .  S
C1696      H1700   1.083       .  S
O1697      H1702   0.992       .  S
O1699      H1703   0.992       .  S
C1705      C1706   1.401       .  A
C1705      C1710   1.396       .  A
C1705      H1715   1.084       .  S
C1706      C1711   1.475       .  S
C1706      C1707   1.406       .  A
C1707      C1708   1.401       .  A
C1707      O1712   1.372       .  S
C1708      C1709   1.406       .  A
C1708      H1713   1.084       .  S
C1709      C1710   1.408       .  A
C1710      O1714   1.371       .  S
C1711      C1716   1.408       .  A
C1711      C1720   1.399       .  A
O1712      H1728   0.992       .  S
O1714      H1725   0.992       .  S
C1716      C1717   1.401       .  A
C1716      O1721   1.372       .  S
C1717      C1718   1.406       .  A
C1717      H1722   1.084       .  S
C1718      C1719   1.413       .  A
C1719      C1720   1.394       .  A
C1719      O1723   1.370       .  S
C1720      H1724   1.084       .  S
O1721      H1726   0.992       .  S
O1723      H1727   0.991       .  S
C1729      C1730   1.404       .  A
C1729      C1734   1.401       .  A
C1729      H1739   1.084       .  S
C1730      C1735   1.482       .  S
C1730      C1731   1.408       .  A
C1731      C1732   1.402       .  A
C1731      O1736   1.372       .  S
C1732      C1733   1.404       .  A
C1732      H1737   1.083       .  S
C1733      C1734   1.408       .  A
C1734      O1738   1.372       .  S
C1735      C1740   1.406       .  A
C1735      C1744   1.403       .  A
O1736      H1752   0.992       .  S
O1738      H1749   0.992       .  S
C1740      C1741   1.400       .  A
C1740      O1745   1.372       .  S
C1741      C1742   1.409       .  A
C1741      H1746   1.083       .  S
C1742      C1743   1.413       .  A
C1743      C1744   1.402       .  A
C1743      O1747   1.371       .  S
C1744      H1748   1.084       .  S
O1745      H1750   0.991       .  S
O1747      H1751   0.992       .  S
C1753      C1754   1.404       .  A
C1753      C1758   1.400       .  A
C1753      H1763   1.083       .  S
C1754      C1759   1.491       .  S
C1754      C1755   1.412       .  A
C1755      C1756   1.403       .  A
C1755      O1760   1.372       .  S
C1756      C1757   1.405       .  A
C1756      H1761   1.084       .  S
C1757      C1758   1.408       .  A
C1758      O1762   1.369       .  S
C1759      C1764   1.412       .  A
C1759      C1768   1.404       .  A
O1760      H1776   0.992       .  S
O1762      H1773   0.992       .  S
C1764      C1765   1.402       .  A
C1764      O1769   1.372       .  S
C1765      C1766   1.404       .  A
C1765      H1770   1.084       .  S
C1766      C1767   1.410       .  A
C1767      C1768   1.401       .  A
C1767      O1771   1.370       .  S
C1768      H1772   1.083       .  S
O1769      H1774   0.992       .  S
O1771      H1775   0.992       .  S
C1777      C1778   1.400       .  A
C1777      C1782   1.399       .  A
C1777      H1787   1.084       .  S
C1778      C1783   1.476       .  S
C1778      C1779   1.405       .  A
C1779      C1780   1.397       .  A
C1779      O1784   1.372       .  S
C1780      C1781   1.407       .  A
C1780      H1785   1.083       .  S
C1781      C1782   1.416       .  A
C1782      O1786   1.372       .  S
C1783      C1788   1.407       .  A
C1783      C1792   1.400       .  A
O1784      H1800   0.992       .  S
O1786      H1797   0.992       .  S
C1788      C1789   1.399       .  A
C1788      O1793   1.371       .  S
C1789      C1790   1.403       .  A
C1789      H1794   1.083       .  S
C1790      C1791   1.411       .  A
C1791      C1792   1.398       .  A
C1791      O1795   1.372       .  S
C1792      H1796   1.084       .  S
O1793      H1798   0.992       .  S
O1795      H1799   0.992       .  S
C1801      C1802   1.402       .  A
C1801      C1806   1.396       .  A
C1801      H1811   1.084       .  S
C1802      C1807   1.478       .  S
C1802      C1803   1.407       .  A
C1803      C1804   1.397       .  A
C1803      O1808   1.372       .  S
C1804      C1805   1.405       .  A
C1804      H1809   1.084       .  S
C1805      C1806   1.412       .  A
C1806      O1810   1.372       .  S
C1807      C1812   1.407       .  A
C1807      C1816   1.402       .  A
O1808      H1824   0.991       .  S
O1810      H1821   0.992       .  S
C1812      C1813   1.397       .  A
C1812      O1817   1.372       .  S
C1813      C1814   1.405       .  A
C1813      H1818   1.083       .  S
C1814      C1815   1.412       .  A
C1815      C1816   1.399       .  A
C1815      O1819   1.371       .  S
C1816      H1820   1.084       .  S
O1817      H1822   0.992       .  S
O1819      H1823   0.992       .  S
C1825      C1826   1.401       .  A
C1825      C1830   1.398       .  A
C1825      H1835   1.083       .  S
C1826      C1831   1.483       .  S
C1826      C1827   1.408   1_655  A
C1827      C1828   1.395       .  A
C1827      O1832   1.372       .  S
C1828      C1829   1.408   1_455  A
C1828      H1833   1.082       .  S
C1829      C1830   1.420       .  A
C1830      O1834   1.371       .  S
C1831      C1836   1.412       .  A
C1831      C1840   1.402   1_655  A
O1832      H1848   0.992       .  S
O1834      H1845   0.992       .  S
C1836      C1837   1.403       .  A
C1836      O1841   1.372       .  S
C1837      C1838   1.404       .  A
C1837      H1842   1.084       .  S
C1838      C1839   1.408   1_655  A
C1839      C1840   1.393       .  A
C1839      O1843   1.372       .  S
C1840      H1844   1.084       .  S
O1841      H1846   0.992       .  S
O1843      H1847   0.992       .  S
C1849      C1850   1.398       .  A
C1849      C1854   1.398       .  A
C1849      H1859   1.084       .  S
C1850      C1855   1.481       .  S
C1850      C1851   1.406   1_655  A
C1851      C1852   1.402       .  A
C1851      O1856   1.372       .  S
C1852      C1853   1.411   1_455  A
C1852      H1857   1.077       .  S
C1853      C1854   1.419       .  A
C1854      O1858   1.373       .  S
C1855      C1860   1.406       .  A
C1855      C1864   1.402   1_655  A
O1856      H1872   0.992       .  S
O1858      H1869   0.992       .  S
C1860      C1861   1.400       .  A
C1860      O1865   1.372       .  S
C1861      C1862   1.408       .  A
C1861      H1866   1.084       .  S
C1862      C1863   1.412   1_655  A
C1863      C1864   1.401       .  A
C1863      O1867   1.372       .  S
C1864      H1868   1.084       .  S
O1865      H1870   0.992       .  S
O1867      H1871   0.992       .  S
C1873      C1874   1.398       .  A
C1873      C1878   1.399       .  A
C1873      H1883   1.084       .  S
C1874      C1879   1.474       .  S
C1874      C1875   1.404       .  A
C1875      C1876   1.400       .  A
C1875      O1880   1.372       .  S
C1876      C1877   1.408       .  A
C1876      H1881   1.083       .  S
C1877      C1878   1.412       .  A
C1878      O1882   1.371       .  S
C1879      C1884   1.404       .  A
C1879      C1888   1.398       .  A
O1880      H1896   0.992       .  S
O1882      H1893   0.992       .  S
C1884      C1885   1.399       .  A
C1884      O1889   1.372       .  S
C1885      C1886   1.410       .  A
C1885      H1890   1.083       .  S
C1886      C1887   1.417       .  A
C1887      C1888   1.399       .  A
C1887      O1891   1.371       .  S
C1888      H1892   1.084       .  S
O1889      H1894   0.992       .  S
O1891      H1895   0.992       .  S
C1897      C1898   1.403       .  A
C1897      C1902   1.399       .  A
C1897      H1907   1.084       .  S
C1898      C1903   1.482       .  S
C1898      C1899   1.408       .  A
C1899      C1900   1.399       .  A
C1899      O1904   1.372       .  S
C1900      C1901   1.407       .  A
C1900      H1905   1.084       .  S
C1901      C1902   1.411       .  A
C1902      O1906   1.371       .  S
C1903      C1908   1.407       .  A
C1903      C1912   1.403       .  A
O1904      H1920   0.992       .  S
O1906      H1917   0.992       .  S
C1908      C1909   1.399       .  A
C1908      O1913   1.372       .  S
C1909      C1910   1.406       .  A
C1909      H1914   1.083       .  S
C1910      C1911   1.411       .  A
C1911      C1912   1.402       .  A
C1911      O1915   1.372       .  S
C1912      H1916   1.084       .  S
O1913      H1918   0.992       .  S
O1915      H1919   0.992       .  S
C1921      C1922   1.399       .  A
C1921      C1926   1.395       .  A
C1921      H1931   1.084       .  S
C1922      C1927   1.465       .  S
C1922      C1923   1.402       .  A
C1923      C1924   1.395       .  A
C1923      O1928   1.372       .  S
C1924      C1925   1.407       .  A
C1924      H1929   1.083       .  S
C1925      C1926   1.413       .  A
C1926      O1930   1.372       .  S
C1927      C1932   1.403       .  A
C1927      C1936   1.399       .  A
O1928      H1944   0.992       .  S
O1930      H1941   0.992       .  S
C1932      C1933   1.394       .  A
C1932      O1937   1.372       .  S
C1933      C1934   1.406       .  A
C1933      H1938   1.083       .  S
C1934      C1935   1.410       .  A
C1935      C1936   1.395       .  A
C1935      O1939   1.371       .  S
C1936      H1940   1.084       .  S
O1937      H1942   0.992       .  S
O1939      H1943   0.992       .  S
C1945      C1946   1.402       .  A
C1945      C1950   1.402       .  A
C1945      H1955   1.084       .  S
C1946      C1951   1.485       .  S
C1946      C1947   1.408       .  A
C1947      C1948   1.403       .  A
C1947      O1952   1.372       .  S
C1948      C1949   1.408       .  A
C1948      H1953   1.083       .  S
C1949      C1950   1.414       .  A
C1950      O1954   1.372       .  S
C1951      C1956   1.409       .  A
C1951      C1960   1.402       .  A
O1952      H1968   0.992       .  S
O1954      H1965   0.992       .  S
C1956      C1957   1.405       .  A
C1956      O1961   1.371       .  S
C1957      C1958   1.402       .  A
C1957      H1962   1.083       .  S
C1958      C1959   1.414       .  A
C1959      C1960   1.400       .  A
C1959      O1963   1.372       .  S
C1960      H1964   1.084       .  S
O1961      H1966   0.992       .  S
O1963      H1967   0.992       .  S
C1969      C1970   1.407       .  A
C1969      C1974   1.405       .  A
C1969      H1979   1.083       .  S
C1970      C1975   1.499       .  S
C1970      C1971   1.415       .  A
C1971      C1972   1.402       .  A
C1971      O1976   1.372       .  S
C1972      C1973   1.403       .  A
C1972      H1977   1.084       .  S
C1973      C1974   1.412       .  A
C1974      O1978   1.372       .  S
C1975      C1980   1.413       .  A
C1975      C1984   1.405       .  A
O1976      H1992   0.992       .  S
O1978      H1989   0.992       .  S
C1980      C1981   1.407       .  A
C1980      O1985   1.372       .  S
C1981      C1982   1.406       .  A
C1981      H1986   1.084       .  S
C1982      C1983   1.410       .  A
C1983      C1984   1.401       .  A
C1983      O1987   1.372   1_565  S
C1984      H1988   1.083       .  S
O1985      H1990   0.992       .  S
O1987      H1991   0.992       .  S
C1993      C1994   1.403       .  A
C1993      C1998   1.394       .  A
C1993      H2003   1.083       .  S
C1994      C1999   1.479       .  S
C1994      C1995   1.410       .  A
C1995      C1996   1.397       .  A
C1995      O2000   1.372       .  S
C1996      C1997   1.403       .  A
C1996      H2001   1.084       .  S
C1997      C1998   1.407       .  A
C1998      O2002   1.371       .  S
C1999      C2004   1.410       .  A
C1999      C2008   1.404       .  A
O2000      H2016   0.992       .  S
O2002      H2013   0.992       .  S
C2004      C2005   1.398       .  A
C2004      O2009   1.372       .  S
C2005      C2006   1.400       .  A
C2005      H2010   1.084       .  S
C2006      C2007   1.405       .  A
C2007      C2008   1.398       .  A
C2007      O2011   1.372       .  S
C2008      H2012   1.084       .  S
O2009      H2014   0.992       .  S
O2011      H2015   0.992   1_565  S
C2017      C2018   1.401       .  A
C2017      C2022   1.399       .  A
C2017      H2027   1.084       .  S
C2018      C2023   1.482       .  S
C2018      C2019   1.407       .  A
C2019      C2020   1.403       .  A
C2019      O2024   1.372       .  S
C2020      C2021   1.409       .  A
C2020      H2025   1.083       .  S
C2021      C2022   1.417       .  A
C2022      O2026   1.372       .  S
C2023      C2028   1.409       .  A
C2023      C2032   1.405       .  A
O2024      H2040   0.992       .  S
O2026      H2037   0.992       .  S
C2028      C2029   1.399       .  A
C2028      O2033   1.371       .  S
C2029      C2030   1.404       .  A
C2029      H2034   1.084       .  S
C2030      C2031   1.406       .  A
C2031      C2032   1.399       .  A
C2031      O2035   1.372       .  S
C2032      H2036   1.084       .  S
O2033      H2038   0.992       .  S
O2035      H2039   0.992       .  S
C2041      C2042   1.397       .  A
C2041      C2046   1.396       .  A
C2041      H2051   1.084       .  S
C2042      C2047   1.468       .  S
C2042      C2043   1.403       .  A
C2043      C2044   1.398       .  A
C2043      O2048   1.372       .  S
C2044      C2045   1.409       .  A
C2044      H2049   1.082       .  S
C2045      C2046   1.415       .  A
C2046      O2050   1.371       .  S
C2047      C2052   1.403       .  A
C2047      C2056   1.401       .  A
O2048      H2064   0.992       .  S
O2050      H2061   0.992       .  S
C2052      C2053   1.396       .  A
C2052      O2057   1.372       .  S
C2053      C2054   1.406       .  A
C2053      H2058   1.084       .  S
C2054      C2055   1.409       .  A
C2055      C2056   1.399       .  A
C2055      O2059   1.371       .  S
C2056      H2060   1.084       .  S
O2057      H2062   0.992       .  S
O2059      H2063   0.992       .  S
C2065      C2066   1.398       .  A
C2065      C2070   1.395       .  A
C2065      H2075   1.084       .  S
C2066      C2071   1.477       .  S
C2066      C2067   1.408       .  A
C2067      C2068   1.401       .  A
C2067      O2072   1.373       .  S
C2068      C2069   1.407       .  A
C2068      H2073   1.083       .  S
C2069      C2070   1.417       .  A
C2070      O2074   1.371       .  S
C2071      C2076   1.405       .  A
C2071      C2080   1.399       .  A
O2072      H2088   0.992       .  S
O2074      H2085   0.991       .  S
C2076      C2077   1.398       .  A
C2076      O2081   1.372       .  S
C2077      C2078   1.411       .  A
C2077      H2082   1.077       .  S
C2078      C2079   1.416       .  A
C2079      C2080   1.396       .  A
C2079      O2083   1.372       .  S
C2080      H2084   1.084       .  S
O2081      H2086   0.992       .  S
O2083      H2087   0.992       .  S
C2089      C2090   1.407       .  A
C2089      C2094   1.404       .  A
C2089      H2099   1.084       .  S
C2090      C2095   1.482       .  S
C2090      C2091   1.405       .  A
C2091      C2092   1.399       .  A
C2091      O2096   1.372       .  S
C2092      C2093   1.405       .  A
C2092      H2097   1.084       .  S
C2093      C2094   1.407       .  A
C2094      O2098   1.372       .  S
C2095      C2100   1.410       .  A
C2095      C2104   1.398       .  A
O2096      H2112   0.992       .  S
O2098      H2109   0.992       .  S
C2100      C2101   1.406       .  A
C2100      O2105   1.371       .  S
C2101      C2102   1.403       .  A
C2101      H2106   1.081       .  S
C2102      C2103   1.412       .  A
C2103      C2104   1.395       .  A
C2103      O2107   1.369       .  S
C2104      H2108   1.084       .  S
O2105      H2110   0.992       .  S
O2107      H2111   0.992       .  S
C2113      C2114   1.400       .  A
C2113      C2118   1.400       .  A
C2113      H2123   1.084       .  S
C2114      C2119   1.484       .  S
C2114      C2115   1.406       .  A
C2115      C2116   1.402       .  A
C2115      O2120   1.373       .  S
C2116      C2117   1.413       .  A
C2116      H2121   1.075       .  S
C2117      C2118   1.417       .  A
C2118      O2122   1.373       .  S
C2119      C2124   1.410       .  A
C2119      C2128   1.403       .  A
O2120      H2136   0.992       .  S
O2122      H2133   0.992       .  S
C2124      C2125   1.398       .  A
C2124      O2129   1.371       .  S
C2125      C2126   1.405       .  A
C2125      H2130   1.084       .  S
C2126      C2127   1.414       .  A
C2127      C2128   1.400       .  A
C2127      O2131   1.372       .  S
C2128      H2132   1.084       .  S
O2129      H2134   0.992       .  S
O2131      H2135   0.992       .  S
C2137      C2138   1.400       .  A
C2137      C2142   1.396       .  A
C2137      H2147   1.084       .  S
C2138      C2143   1.483       .  S
C2138      C2139   1.408       .  A
C2139      C2140   1.408       .  A
C2139      O2144   1.372       .  S
C2140      C2141   1.409       .  A
C2140      H2145   1.083       .  S
C2141      C2142   1.414       .  A
C2142      O2146   1.372       .  S
C2143      C2148   1.411       .  A
C2143      C2152   1.402       .  A
O2144      H2160   0.991       .  S
O2146      H2157   0.992       .  S
C2148      C2149   1.406       .  A
C2148      O2153   1.372       .  S
C2149      C2150   1.403       .  A
C2149      H2154   1.083       .  S
C2150      C2151   1.410       .  A
C2151      C2152   1.400       .  A
C2151      O2155   1.373       .  S
C2152      H2156   1.084       .  S
O2153      H2158   0.992       .  S
O2155      H2159   0.992       .  S
C2161      C2162   1.403       .  A
C2161      C2166   1.397       .  A
C2161      H2171   1.084       .  S
C2162      C2167   1.476       .  S
C2162      C2163   1.407   1_556  A
C2163      C2164   1.393       .  A
C2163      O2168   1.372       .  S
C2164      C2165   1.405   1_554  A
C2164      H2169   1.084       .  S
C2165      C2166   1.410       .  A
C2166      O2170   1.372       .  S
C2167      C2172   1.407       .  A
C2167      C2176   1.398   1_556  A
O2168      H2184   0.992       .  S
O2170      H2181   0.992       .  S
C2172      C2173   1.398       .  A
C2172      O2177   1.372       .  S
C2173      C2174   1.410       .  A
C2173      H2178   1.077       .  S
C2174      C2175   1.416   1_556  A
C2175      C2176   1.392       .  A
C2175      O2179   1.373       .  S
C2176      H2180   1.084       .  S
O2177      H2182   0.992       .  S
O2179      H2183   0.992       .  S
C2185      C2186   1.411       .  A
C2185      C2190   1.407       .  A
C2185      H2195   1.083       .  S
C2186      C2191   1.487       .  S
C2186      C2187   1.406       .  A
C2187      C2188   1.395       .  A
C2187      O2192   1.372       .  S
C2188      C2189   1.402       .  A
C2188      H2193   1.081       .  S
C2189      C2190   1.405       .  A
C2190      O2194   1.371       .  S
C2191      C2196   1.407   1_556  A
C2191      C2200   1.406       .  A
O2192      H2208   0.992   1_556  S
O2194      H2205   0.992       .  S
C2196      C2197   1.398       .  A
C2196      O2201   1.372       .  S
C2197      C2198   1.407   1_554  A
C2197      H2202   1.084       .  S
C2198      C2199   1.410       .  A
C2199      C2200   1.405       .  A
C2199      O2203   1.371       .  S
C2200      H2204   1.083       .  S
O2201      H2206   0.992       .  S
O2203      H2207   0.992       .  S
C2209      C2210   1.403   1_554  A
C2209      C2214   1.409       .  A
C2209      H2219   1.083       .  S
C2210      C2215   1.491       .  S
C2210      C2211   1.403       .  A
C2211      C2212   1.400       .  A
C2211      O2216   1.372       .  S
C2212      C2213   1.416       .  A
C2212      H2217   1.075       .  S
C2213      C2214   1.418   1_556  A
C2214      O2218   1.373       .  S
C2215      C2220   1.407   1_556  A
C2215      C2224   1.403       .  A
O2216      H2232   0.992   1_556  S
O2218      H2229   0.992       .  S
C2220      C2221   1.406       .  A
C2220      O2225   1.372       .  S
C2221      C2222   1.411       .  A
C2221      H2226   1.083       .  S
C2222      C2223   1.418   1_554  A
C2223      C2224   1.404       .  A
C2223      O2227   1.371       .  S
C2224      H2228   1.084       .  S
O2225      H2230   0.992       .  S
O2227      H2231   0.992       .  S
C2233      C2234   1.404       .  A
C2233      C2238   1.407       .  A
C2233      H2243   1.083       .  S
C2234      C2239   1.483       .  S
C2234      C2235   1.407       .  A
C2235      C2236   1.395       .  A
C2235      O2240   1.372       .  S
C2236      C2237   1.406       .  A
C2236      H2241   1.084       .  S
C2237      C2238   1.414       .  A
C2238      O2242   1.372       .  S
C2239      C2244   1.410       .  A
C2239      C2248   1.401       .  A
O2240      H2256   0.992   1_556  S
O2242      H2253   0.992   1_545  S
C2244      C2245   1.407       .  A
C2244      O2249   1.371   1_556  S
C2245      C2246   1.403       .  A
C2245      H2250   1.083   1_556  S
C2246      C2247   1.411       .  A
C2247      C2248   1.398       .  A
C2247      O2251   1.372       .  S
C2248      H2252   1.084       .  S
O2249      H2254   0.992       .  S
O2251      H2255   0.992       .  S
C2257      C2258   1.398       .  A
C2257      C2262   1.403       .  A
C2257      H2267   1.084       .  S
C2258      C2263   1.478       .  S
C2258      C2259   1.402       .  A
C2259      C2260   1.399       .  A
C2259      O2264   1.372       .  S
C2260      C2261   1.413       .  A
C2260      H2265   1.075       .  S
C2261      C2262   1.419       .  A
C2262      O2266   1.373       .  S
C2263      C2268   1.404       .  A
C2263      C2272   1.400       .  A
O2264      H2280   0.992       .  S
O2266      H2277   0.992       .  S
C2268      C2269   1.401       .  A
C2268      O2273   1.371       .  S
C2269      C2270   1.410       .  A
C2269      H2274   1.082       .  S
C2270      C2271   1.417       .  A
C2271      C2272   1.400       .  A
C2271      O2275   1.372       .  S
C2272      H2276   1.084       .  S
O2273      H2278   0.992       .  S
O2275      H2279   0.992       .  S
C2281      C2282   1.401       .  A
C2281      C2286   1.403       .  A
C2281      H2291   1.083       .  S
C2282      C2287   1.472       .  S
C2282      C2283   1.404       .  A
C2283      C2284   1.393       .  A
C2283      O2288   1.372       .  S
C2284      C2285   1.406       .  A
C2284      H2289   1.084       .  S
C2285      C2286   1.413       .  A
C2286      O2290   1.372       .  S
C2287      C2292   1.407       .  A
C2287      C2296   1.400       .  A
O2288      H2304   0.992       .  S
O2290      H2301   0.992       .  S
C2292      C2293   1.402       .  A
C2292      O2297   1.371       .  S
C2293      C2294   1.401       .  A
C2293      H2298   1.084       .  S
C2294      C2295   1.406       .  A
C2295      C2296   1.396       .  A
C2295      O2299   1.371       .  S
C2296      H2300   1.084       .  S
O2297      H2302   0.992       .  S
O2299      H2303   0.992       .  S
C2305      C2306   1.399   1_554  A
C2305      C2310   1.400       .  A
C2305      H2315   1.084       .  S
C2306      C2311   1.474       .  S
C2306      C2307   1.401       .  A
C2307      C2308   1.397       .  A
C2307      O2312   1.373       .  S
C2308      C2309   1.412       .  A
C2308      H2313   1.075       .  S
C2309      C2310   1.418   1_556  A
C2310      O2314   1.372       .  S
C2311      C2316   1.407       .  A
C2311      C2320   1.399   1_556  A
O2312      H2328   0.992       .  S
O2314      H2325   0.992       .  S
C2316      C2317   1.397       .  A
C2316      O2321   1.371       .  S
C2317      C2318   1.403       .  A
C2317      H2322   1.083       .  S
C2318      C2319   1.415   1_556  A
C2319      C2320   1.397       .  A
C2319      O2323   1.373       .  S
C2320      H2324   1.084       .  S
O2321      H2326   0.992       .  S
O2323      H2327   0.992       .  S
C2329      C2330   1.403       .  A
C2329      C2334   1.396       .  A
C2329      H2339   1.084       .  S
C2330      C2335   1.481       .  S
C2330      C2331   1.408       .  A
C2331      C2332   1.402       .  A
C2331      O2336   1.371       .  S
C2332      C2333   1.403       .  A
C2332      H2337   1.080   1_565  S
C2333      C2334   1.408       .  A
C2334      O2338   1.373       .  S
C2335      C2340   1.408   1_554  A
C2335      C2344   1.404       .  A
O2336      H2352   0.992   1_554  S
O2338      H2349   0.992       .  S
C2340      C2341   1.395       .  A
C2340      O2345   1.373       .  S
C2341      C2342   1.403       .  A
C2341      H2346   1.084       .  S
C2342      C2343   1.410   1_556  A
C2343      C2344   1.403       .  A
C2343      O2347   1.371       .  S
C2344      H2348   1.083       .  S
O2345      H2350   0.992       .  S
O2347      H2351   0.992       .  S
C2353      C2354   1.402       .  A
C2353      C2358   1.401       .  A
C2353      H2363   1.083       .  S
C2354      C2359   1.487       .  S
C2354      C2355   1.410   1_556  A
C2355      C2356   1.401       .  A
C2355      O2360   1.372       .  S
C2356      C2357   1.406       .  A
C2356      H2361   1.082       .  S
C2357      C2358   1.416   1_554  A
C2358      O2362   1.372       .  S
C2359      C2364   1.407       .  A
C2359      C2368   1.401   1_556  A
O2360      H2376   0.992       .  S
O2362      H2373   0.992       .  S
C2364      C2365   1.403       .  A
C2364      O2369   1.373       .  S
C2365      C2366   1.413       .  A
C2365      H2370   1.076       .  S
C2366      C2367   1.417   1_556  A
C2367      C2368   1.398       .  A
C2367      O2371   1.372       .  S
C2368      H2372   1.083       .  S
O2369      H2374   0.992       .  S
O2371      H2375   0.992       .  S
C2377      C2378   1.402       .  A
C2377      C2382   1.402       .  A
C2377      H2387   1.083       .  S
C2378      C2383   1.491       .  S
C2378      C2379   1.414   1_554  A
C2379      C2380   1.407       .  A
C2379      O2384   1.373       .  S
C2380      C2381   1.400   1_556  A
C2380      H2385   1.083       .  S
C2381      C2382   1.412       .  A
C2382      O2386   1.372       .  S
C2383      C2388   1.409   1_554  A
C2383      C2392   1.407       .  A
O2384      H2400   0.992       .  S
O2386      H2397   0.992       .  S
C2388      C2389   1.398       .  A
C2388      O2393   1.372       .  S
C2389      C2390   1.405   1_556  A
C2389      H2394   1.083       .  S
C2390      C2391   1.411       .  A
C2391      C2392   1.409       .  A
C2391      O2395   1.370       .  S
C2392      H2396   1.083       .  S
O2393      H2398   0.992       .  S
O2395      H2399   0.992       .  S
C2401      C2402   1.405       .  A
C2401      C2406   1.402       .  A
C2401      H2411   1.083       .  S
C2402      C2407   1.484       .  S
C2402      C2403   1.407   1_545  A
C2403      C2404   1.398       .  A
C2403      O2408   1.372       .  S
C2404      C2405   1.407   1_565  A
C2404      H2409   1.084       .  S
C2405      C2406   1.412       .  A
C2406      O2410   1.372       .  S
C2407      C2412   1.406       .  A
C2407      C2416   1.399   1_545  A
O2408      H2424   0.992       .  S
O2410      H2421   0.992       .  S
C2412      C2413   1.403       .  A
C2412      O2417   1.372       .  S
C2413      C2414   1.414       .  A
C2413      H2418   1.077       .  S
C2414      C2415   1.417   1_545  A
C2415      C2416   1.399       .  A
C2415      O2419   1.372       .  S
C2416      H2420   1.084       .  S
O2417      H2422   0.992       .  S
O2419      H2423   0.992       .  S
C2425      C2426   1.403       .  A
C2425      C2430   1.401       .  A
C2425      H2435   1.084       .  S
C2426      C2431   1.478       .  S
C2426      C2427   1.406   1_545  A
C2427      C2428   1.395       .  A
C2427      O2432   1.372       .  S
C2428      C2429   1.405   1_565  A
C2428      H2433   1.083       .  S
C2429      C2430   1.412       .  A
C2430      O2434   1.372       .  S
C2431      C2436   1.404       .  A
C2431      C2440   1.399       .  A
O2432      H2448   0.992       .  S
O2434      H2445   0.992       .  S
C2436      C2437   1.400       .  A
C2436      O2441   1.372       .  S
C2437      C2438   1.412       .  A
C2437      H2442   1.076       .  S
C2438      C2439   1.416       .  A
C2439      C2440   1.396       .  A
C2439      O2443   1.372       .  S
C2440      H2444   1.084       .  S
O2441      H2446   0.992   1_545  S
O2443      H2447   0.992       .  S
C2449      C2450   1.398       .  A
C2449      C2454   1.398       .  A
C2449      H2459   1.084       .  S
C2450      C2455   1.472       .  S
C2450      C2451   1.406       .  A
C2451      C2452   1.400       .  A
C2451      O2456   1.371       .  S
C2452      C2453   1.403       .  A
C2452      H2457   1.083       .  S
C2453      C2454   1.412       .  A
C2454      O2458   1.373       .  S
C2455      C2460   1.402       .  A
C2455      C2464   1.399       .  A
O2456      H2472   0.992       .  S
O2458      H2469   0.992       .  S
C2460      C2461   1.397       .  A
C2460      O2465   1.372       .  S
C2461      C2462   1.411       .  A
C2461      H2466   1.083       .  S
C2462      C2463   1.416       .  A
C2463      C2464   1.400       .  A
C2463      O2467   1.371       .  S
C2464      H2468   1.084       .  S
O2465      H2470   0.992       .  S
O2467      H2471   0.992       .  S
C2473      C2474   1.402       .  A
C2473      C2478   1.401       .  A
C2473      H2483   1.084       .  S
C2474      C2479   1.485       .  S
C2474      C2475   1.409       .  A
C2475      C2476   1.404       .  A
C2475      O2480   1.372       .  S
C2476      C2477   1.404       .  A
C2476      H2481   1.083       .  S
C2477      C2478   1.412       .  A
C2478      O2482   1.372       .  S
C2479      C2484   1.407       .  A
C2479      C2488   1.402       .  A
O2480      H2496   0.992       .  S
O2482      H2493   0.992       .  S
C2484      C2485   1.402       .  A
C2484      O2489   1.372       .  S
C2485      C2486   1.410       .  A
C2485      H2490   1.083       .  S
C2486      C2487   1.414       .  A
C2487      C2488   1.402       .  A
C2487      O2491   1.372       .  S
C2488      H2492   1.084       .  S
O2489      H2494   0.992       .  S
O2491      H2495   0.992       .  S
C2497      C2498   1.399       .  A
C2497      C2502   1.397       .  A
C2497      H2507   1.084       .  S
C2498      C2503   1.466       .  S
C2498      C2499   1.403       .  A
C2499      C2500   1.397       .  A
C2499      O2504   1.372       .  S
C2500      C2501   1.404       .  A
C2500      H2505   1.084       .  S
C2501      C2502   1.410       .  A
C2502      O2506   1.371       .  S
C2503      C2508   1.401       .  A
C2503      C2512   1.397       .  A
O2504      H2520   0.992       .  S
O2506      H2517   0.992       .  S
C2508      C2509   1.396       .  A
C2508      O2513   1.371       .  S
C2509      C2510   1.408       .  A
C2509      H2514   1.083       .  S
C2510      C2511   1.419       .  A
C2511      C2512   1.397       .  A
C2511      O2515   1.372       .  S
C2512      H2516   1.084       .  S
O2513      H2518   0.992       .  S
O2515      H2519   0.992       .  S
C2521      C2522   1.400       .  A
C2521      C2526   1.395       .  A
C2521      H2531   1.083       .  S
C2522      C2527   1.483       .  S
C2522      C2523   1.409       .  A
C2523      C2524   1.398       .  A
C2523      O2528   1.372       .  S
C2524      C2525   1.410       .  A
C2524      H2529   1.080       .  S
C2525      C2526   1.416       .  A
C2526      O2530   1.372       .  S
C2527      C2532   1.413       .  A
C2527      C2536   1.404       .  A
O2528      H2544   0.992       .  S
O2530      H2541   0.992       .  S
C2532      C2533   1.400       .  A
C2532      O2537   1.373       .  S
C2533      C2534   1.400       .  A
C2533      H2538   1.084       .  S
C2534      C2535   1.406       .  A
C2535      C2536   1.394       .  A
C2535      O2539   1.373       .  S
C2536      H2540   1.083       .  S
O2537      H2542   0.992       .  S
O2539      H2543   0.992       .  S
C2545      C2546   1.402       .  A
C2545      C2550   1.403       .  A
C2545      H2555   1.083       .  S
C2546      C2551   1.496       .  S
C2546      C2547   1.410       .  A
C2547      C2548   1.406       .  A
C2547      O2552   1.372       .  S
C2548      C2549   1.412       .  A
C2548      H2553   1.077       .  S
C2549      C2550   1.419       .  A
C2550      O2554   1.372       .  S
C2551      C2556   1.410       .  A
C2551      C2560   1.405       .  A
O2552      H2568   0.992       .  S
O2554      H2565   0.992       .  S
C2556      C2557   1.405       .  A
C2556      O2561   1.372       .  S
C2557      C2558   1.410       .  A
C2557      H2562   1.083       .  S
C2558      C2559   1.415       .  A
C2559      C2560   1.403       .  A
C2559      O2563   1.371       .  S
C2560      H2564   1.083       .  S
O2561      H2566   0.992       .  S
O2563      H2567   0.992       .  S
C2569      C2570   1.404       .  A
C2569      C2574   1.402       .  A
C2569      H2579   1.084       .  S
C2570      C2575   1.485       .  S
C2570      C2571   1.408       .  A
C2571      C2572   1.402       .  A
C2571      O2576   1.372       .  S
C2572      C2573   1.406       .  A
C2572      H2577   1.083       .  S
C2573      C2574   1.414       .  A
C2574      O2578   1.372       .  S
C2575      C2580   1.409       .  A
C2575      C2584   1.401       .  A
O2576      H2592   0.992       .  S
O2578      H2589   0.992       .  S
C2580      C2581   1.401       .  A
C2580      O2585   1.371       .  S
C2581      C2582   1.404       .  A
C2581      H2586   1.083       .  S
C2582      C2583   1.417       .  A
C2583      C2584   1.402       .  A
C2583      O2587   1.373       .  S
C2584      H2588   1.084       .  S
O2585      H2590   0.992       .  S
O2587      H2591   0.992       .  S
C2593      C2594   1.405       .  A
C2593      C2598   1.400       .  A
C2593      H2603   1.083       .  S
C2594      C2599   1.486       .  S
C2594      C2595   1.411       .  A
C2595      C2596   1.399       .  A
C2595      O2600   1.372       .  S
C2596      C2597   1.403       .  A
C2596      H2601   1.084       .  S
C2597      C2598   1.410       .  A
C2598      O2602   1.372       .  S
C2599      C2604   1.411       .  A
C2599      C2608   1.406       .  A
O2600      H2616   0.992       .  S
O2602      H2613   0.992   1_565  S
C2604      C2605   1.400       .  A
C2604      O2609   1.372       .  S
C2605      C2606   1.402       .  A
C2605      H2610   1.084       .  S
C2606      C2607   1.404       .  A
C2607      C2608   1.399       .  A
C2607      O2611   1.372       .  S
C2608      H2612   1.083       .  S
O2609      H2614   0.992       .  S
O2611      H2615   0.991       .  S
C2617      C2618   1.401       .  A
C2617      C2622   1.400       .  A
C2617      H2627   1.084       .  S
C2618      C2623   1.475       .  S
C2618      C2619   1.406       .  A
C2619      C2620   1.397       .  A
C2619      O2624   1.372       .  S
C2620      C2621   1.404       .  A
C2620      H2625   1.083       .  S
C2621      C2622   1.412       .  A
C2622      O2626   1.372       .  S
C2623      C2628   1.407       .  A
C2623      C2632   1.402       .  A
O2624      H2640   0.992       .  S
O2626      H2637   0.992       .  S
C2628      C2629   1.398       .  A
C2628      O2633   1.372       .  S
C2629      C2630   1.404       .  A
C2629      H2634   1.084       .  S
C2630      C2631   1.409       .  A
C2631      C2632   1.395       .  A
C2631      O2635   1.372       .  S
C2632      H2636   1.084       .  S
O2633      H2638   0.992       .  S
O2635      H2639   0.992   1_565  S
C2641      C2642   1.400       .  A
C2641      C2646   1.398       .  A
C2641      H2651   1.084       .  S
C2642      C2647   1.480       .  S
C2642      C2643   1.406       .  A
C2643      C2644   1.402       .  A
C2643      O2648   1.372       .  S
C2644      C2645   1.407       .  A
C2644      H2649   1.083       .  S
C2645      C2646   1.417       .  A
C2646      O2650   1.372       .  S
C2647      C2652   1.407       .  A
C2647      C2656   1.399       .  A
O2648      H2664   0.992       .  S
O2650      H2661   0.992       .  S
C2652      C2653   1.406       .  A
C2652      O2657   1.372       .  S
C2653      C2654   1.407       .  A
C2653      H2658   1.082       .  S
C2654      C2655   1.414       .  A
C2655      C2656   1.399       .  A
C2655      O2659   1.372       .  S
C2656      H2660   1.084       .  S
O2657      H2662   0.992       .  S
O2659      H2663   0.992       .  S
C2665      C2666   1.400       .  A
C2665      C2670   1.403       .  A
C2665      H2675   1.083       .  S
C2666      C2671   1.478       .  S
C2666      C2667   1.402       .  A
C2667      C2668   1.395       .  A
C2667      O2672   1.373       .  S
C2668      C2669   1.413       .  A
C2668      H2673   1.074       .  S
C2669      C2670   1.418       .  A
C2670      O2674   1.373       .  S
C2671      C2676   1.406       .  A
C2671      C2680   1.403       .  A
O2672      H2688   0.992       .  S
O2674      H2685   0.992       .  S
C2676      C2677   1.401       .  A
C2676      O2681   1.372       .  S
C2677      C2678   1.404       .  A
C2677      H2682   1.078       .  S
C2678      C2679   1.409       .  A
C2679      C2680   1.397       .  A
C2679      O2683   1.372       .  S
C2680      H2684   1.084       .  S
O2681      H2686   0.992       .  S
O2683      H2687   0.992       .  S
C2689      C2690   1.403       .  A
C2689      C2694   1.405       .  A
C2689      H2699   1.084       .  S
C2690      C2695   1.486       .  S
C2690      C2691   1.405       .  A
C2691      C2692   1.401       .  A
C2691      O2696   1.371       .  S
C2692      C2693   1.410       .  A
C2692      H2697   1.083       .  S
C2693      C2694   1.417       .  A
C2694      O2698   1.372       .  S
C2695      C2700   1.404       .  A
C2695      C2704   1.405       .  A
O2696      H2712   0.992       .  S
O2698      H2709   0.992       .  S
C2700      C2701   1.399       .  A
C2700      O2705   1.372       .  S
C2701      C2702   1.410       .  A
C2701      H2706   1.083       .  S
C2702      C2703   1.413       .  A
C2703      C2704   1.406       .  A
C2703      O2707   1.370       .  S
C2704      H2708   1.084       .  S
O2705      H2710   0.992       .  S
O2707      H2711   0.991       .  S
C2713      C2714   1.407       .  A
C2713      C2718   1.402       .  A
C2713      H2723   1.084       .  S
C2714      C2719   1.480       .  S
C2714      C2715   1.405       .  A
C2715      C2716   1.400       .  A
C2715      O2720   1.372       .  S
C2716      C2717   1.404       .  A
C2716      H2721   1.084       .  S
C2717      C2718   1.403       .  A
C2718      O2722   1.371       .  S
C2719      C2724   1.411       .  A
C2719      C2728   1.400       .  A
O2720      H2736   0.992       .  S
O2722      H2733   0.992       .  S
C2724      C2725   1.403       .  A
C2724      O2729   1.372       .  S
C2725      C2726   1.400       .  A
C2725      H2730   1.082       .  S
C2726      C2727   1.411       .  A
C2727      C2728   1.400       .  A
C2727      O2731   1.373       .  S
C2728      H2732   1.084       .  S
O2729      H2734   0.992       .  S
O2731      H2735   0.992       .  S
C2737      C2738   1.399       .  A
C2737      C2742   1.401       .  A
C2737      H2747   1.084       .  S
C2738      C2743   1.475       .  S
C2738      C2739   1.401       .  A
C2739      C2740   1.397       .  A
C2739      O2744   1.372   1_545  S
C2740      C2741   1.414       .  A
C2740      H2745   1.075       .  S
C2741      C2742   1.417       .  A
C2742      O2746   1.373       .  S
C2743      C2748   1.405   1_545  A
C2743      C2752   1.401       .  A
O2744      H2760   0.992       .  S
O2746      H2757   0.992       .  S
C2748      C2749   1.400       .  A
C2748      O2753   1.371       .  S
C2749      C2750   1.407   1_565  A
C2749      H2754   1.083       .  S
C2750      C2751   1.413       .  A
C2751      C2752   1.397       .  A
C2751      O2755   1.372       .  S
C2752      H2756   1.084       .  S
O2753      H2758   0.992       .  S
O2755      H2759   0.992       .  S
C2761      C2762   1.401       .  A
C2761      C2766   1.398       .  A
C2761      H2771   1.084       .  S
C2762      C2767   1.483       .  S
C2762      C2763   1.406   1_545  A
C2763      C2764   1.400       .  A
C2763      O2768   1.373       .  S
C2764      C2765   1.411   1_565  A
C2764      H2769   1.076       .  S
C2765      C2766   1.416       .  A
C2766      O2770   1.372       .  S
C2767      C2772   1.409   1_545  A
C2767      C2776   1.400       .  A
O2768      H2784   0.992       .  S
O2770      H2781   0.992       .  S
C2772      C2773   1.400       .  A
C2772      O2777   1.372       .  S
C2773      C2774   1.407   1_565  A
C2773      H2778   1.083       .  S
C2774      C2775   1.418       .  A
C2775      C2776   1.397       .  A
C2775      O2779   1.372       .  S
C2776      H2780   1.084       .  S
O2777      H2782   0.992       .  S
O2779      H2783   0.992       .  S
C2785      C2786   1.407       .  A
C2785      C2790   1.400       .  A
C2785      H2795   1.083       .  S
C2786      C2791   1.497       .  S
C2786      C2787   1.414       .  A
C2787      C2788   1.404       .  A
C2787      O2792   1.371       .  S
C2788      C2789   1.404       .  A
C2788      H2793   1.084       .  S
C2789      C2790   1.410       .  A
C2790      O2794   1.372       .  S
C2791      C2796   1.412       .  A
C2791      C2800   1.407       .  A
O2792      H2808   0.992       .  S
O2794      H2805   0.992       .  S
C2796      C2797   1.401       .  A
C2796      O2801   1.373       .  S
C2797      C2798   1.404       .  A
C2797      H2802   1.083       .  S
C2798      C2799   1.412       .  A
C2799      C2800   1.404       .  A
C2799      O2803   1.371       .  S
C2800      H2804   1.083       .  S
O2801      H2806   0.992       .  S
O2803      H2807   0.992       .  S
C2809      C2810   1.400       .  A
C2809      C2814   1.400       .  A
C2809      H2819   1.084       .  S
C2810      C2815   1.478       .  S
C2810      C2811   1.406       .  A
C2811      C2812   1.400       .  A
C2811      O2816   1.372       .  S
C2812      C2813   1.409       .  A
C2812      H2817   1.083       .  S
C2813      C2814   1.416       .  A
C2814      O2818   1.371       .  S
C2815      C2820   1.408       .  A
C2815      C2824   1.400       .  A
O2816      H2832   0.992       .  S
O2818      H2829   0.992       .  S
C2820      C2821   1.402       .  A
C2820      O2825   1.372       .  S
C2821      C2822   1.407       .  A
C2821      H2826   1.083       .  S
C2822      C2823   1.411       .  A
C2823      C2824   1.399       .  A
C2823      O2827   1.372       .  S
C2824      H2828   1.084       .  S
O2825      H2830   0.992       .  S
O2827      H2831   0.992       .  S
C2833      C2834   1.405       .  A
C2833      C2838   1.400       .  A
C2833      H2843   1.083       .  S
C2834      C2839   1.483       .  S
C2834      C2835   1.408       .  A
C2835      C2836   1.396       .  A
C2835      O2840   1.372       .  S
C2836      C2837   1.403       .  A
C2836      H2841   1.083       .  S
C2837      C2838   1.411       .  A
C2838      O2842   1.371       .  S
C2839      C2844   1.409       .  A
C2839      C2848   1.405       .  A
O2840      H2856   0.992       .  S
O2842      H2853   0.992       .  S
C2844      C2845   1.399       .  A
C2844      O2849   1.372       .  S
C2845      C2846   1.404       .  A
C2845      H2850   1.084       .  S
C2846      C2847   1.406       .  A
C2847      C2848   1.398       .  A
C2847      O2851   1.372       .  S
C2848      H2852   1.083       .  S
O2849      H2854   0.992       .  S
O2851      H2855   0.992       .  S
C2857      C2858   1.406       .  A
C2857      C2862   1.402       .  A
C2857      H2867   1.083       .  S
C2858      C2863   1.493       .  S
C2858      C2859   1.412       .  A
C2859      C2860   1.400       .  A
C2859      O2864   1.371       .  S
C2860      C2861   1.403       .  A
C2860      H2865   1.084       .  S
C2861      C2862   1.410       .  A
C2862      O2866   1.371       .  S
C2863      C2868   1.412       .  A
C2863      C2872   1.407       .  A
O2864      H2880   0.992       .  S
O2866      H2877   0.992       .  S
C2868      C2869   1.403       .  A
C2868      O2873   1.372       .  S
C2869      C2870   1.404       .  A
C2869      H2874   1.084       .  S
C2870      C2871   1.406       .  A
C2871      C2872   1.400       .  A
C2871      O2875   1.371       .  S
C2872      H2876   1.083       .  S
O2873      H2878   0.992       .  S
O2875      H2879   0.992       .  S
C2881      C2882   1.405       .  A
C2881      C2886   1.400       .  A
C2881      H2891   1.083       .  S
C2882      C2887   1.483       .  S
C2882      C2883   1.407       .  A
C2883      C2884   1.399       .  A
C2883      O2888   1.372       .  S
C2884      C2885   1.408       .  A
C2884      H2889   1.084       .  S
C2885      C2886   1.408       .  A
C2886      O2890   1.372       .  S
C2887      C2892   1.407       .  A
C2887      C2896   1.400       .  A
O2888      H2904   0.992       .  S
O2890      H2901   0.992       .  S
C2892      C2893   1.401       .  A
C2892      O2897   1.373       .  S
C2893      C2894   1.410       .  A
C2893      H2898   1.077       .  S
C2894      C2895   1.418       .  A
C2895      C2896   1.398       .  A
C2895      O2899   1.372       .  S
C2896      H2900   1.084       .  S
O2897      H2902   0.992       .  S
O2899      H2903   0.992       .  S
C2905      C2906   1.402       .  A
C2905      C2910   1.398       .  A
C2905      H2915   1.083       .  S
C2906      C2911   1.487       .  S
C2906      C2907   1.408       .  A
C2907      C2908   1.397       .  A
C2907      O2912   1.372       .  S
C2908      C2909   1.411       .  A
C2908      H2913   1.083       .  S
C2909      C2910   1.418       .  A
C2910      O2914   1.369       .  S
C2911      C2916   1.412       .  A
C2911      C2920   1.403       .  A
O2912      H2928   0.992       .  S
O2914      H2925   0.992       .  S
C2916      C2917   1.402       .  A
C2916      O2921   1.373       .  S
C2917      C2918   1.402       .  A
C2917      H2922   1.084       .  S
C2918      C2919   1.411       .  A
C2919      C2920   1.396       .  A
C2919      O2923   1.373       .  S
C2920      H2924   1.083       .  S
O2921      H2926   0.992       .  S
O2923      H2927   0.992       .  S
C2929      C2930   1.403       .  A
C2929      C2934   1.398       .  A
C2929      H2939   1.083       .  S
C2930      C2935   1.485       .  S
C2930      C2931   1.409       .  A
C2931      C2932   1.404       .  A
C2931      O2936   1.372       .  S
C2932      C2933   1.406       .  A
C2932      H2937   1.084       .  S
C2933      C2934   1.410       .  A
C2934      O2938   1.371       .  S
C2935      C2940   1.410       .  A
C2935      C2944   1.405       .  A
O2936      H2952   0.992       .  S
O2938      H2949   0.992       .  S
C2940      C2941   1.398       .  A
C2940      O2945   1.372       .  S
C2941      C2942   1.400       .  A
C2941      H2946   1.084       .  S
C2942      C2943   1.410       .  A
C2943      C2944   1.403       .  A
C2943      O2947   1.372       .  S
C2944      H2948   1.083       .  S
O2945      H2950   0.992       .  S
O2947      H2951   0.992       .  S
C2953      C2954   1.408       .  A
C2953      C2958   1.405       .  A
C2953      H2963   1.083       .  S
C2954      C2959   1.494       .  S
C2954      C2955   1.410       .  A
C2955      C2956   1.400       .  A
C2955      O2960   1.372       .  S
C2956      C2957   1.406       .  A
C2956      H2961   1.084       .  S
C2957      C2958   1.409       .  A
C2958      O2962   1.372       .  S
C2959      C2964   1.410       .  A
C2959      C2968   1.408       .  A
O2960      H2976   0.992       .  S
O2962      H2973   0.992       .  S
C2964      C2965   1.402       .  A
C2964      O2969   1.372       .  S
C2965      C2966   1.404       .  A
C2965      H2970   1.084       .  S
C2966      C2967   1.409       .  A
C2967      C2968   1.404       .  A
C2967      O2971   1.371       .  S
C2968      H2972   1.083       .  S
O2969      H2974   0.992       .  S
O2971      H2975   0.992       .  S
C2977      C2978   1.400       .  A
C2977      C2982   1.396       .  A
C2977      H2987   1.084       .  S
C2978      C2983   1.474       .  S
C2978      C2979   1.405       .  A
C2979      C2980   1.400       .  A
C2979      O2984   1.372       .  S
C2980      C2981   1.407       .  A
C2980      H2985   1.083       .  S
C2981      C2982   1.413       .  A
C2982      O2986   1.372       .  S
C2983      C2988   1.405       .  A
C2983      C2992   1.402       .  A
O2984      H3000   0.992       .  S
O2986      H2997   0.992       .  S
C2988      C2989   1.397       .  A
C2988      O2993   1.372       .  S
C2989      C2990   1.407       .  A
C2989      H2994   1.083       .  S
C2990      C2991   1.411       .  A
C2991      C2992   1.398       .  A
C2991      O2995   1.371       .  S
C2992      H2996   1.084       .  S
O2993      H2998   0.992       .  S
O2995      H2999   0.992       .  S
C3001      C3002   1.406       .  A
C3001      C3006   1.397       .  A
C3001      H3011   1.083       .  S
C3002      C3007   1.482       .  S
C3002      C3003   1.410       .  A
C3003      C3004   1.397       .  A
C3003      O3008   1.371       .  S
C3004      C3005   1.401       .  A
C3004      H3009   1.084       .  S
C3005      C3006   1.405       .  A
C3006      O3010   1.372       .  S
C3007      C3012   1.409       .  A
C3007      C3016   1.405       .  A
O3008      H3024   0.992       .  S
O3010      H3021   0.992       .  S
C3012      C3013   1.396       .  A
C3012      O3017   1.373       .  S
C3013      C3014   1.401       .  A
C3013      H3018   1.084       .  S
C3014      C3015   1.410       .  A
C3015      C3016   1.399       .  A
C3015      O3019   1.373       .  S
C3016      H3020   1.083       .  S
O3017      H3022   0.992       .  S
O3019      H3023   0.992       .  S
