geometry optimzed in LAMMPS
_audit_creation_date              2020-11-30 
_audit_creation_method            'lammps2cif' 
_symmetry_space_group_name_H-M    'P1' 
_symmetry_Int_Tables_number       1 
_symmetry_cell_setting            triclinic 
loop_ 
_symmetry_equiv_pos_as_xyz 
  x,y,z 
_cell_length_a                    31.04611851138762 
_cell_length_b                    31.580209970447847 
_cell_length_c                    30.755760939893484 
_cell_angle_alpha                 90.38860032207124 
_cell_angle_beta                  89.89317541751647 
_cell_angle_gamma                 90.0900520120333 
loop_ 
_atom_site_label 
_atom_site_type_symbol 
_atom_site_fract_x 
_atom_site_fract_y 
_atom_site_fract_z 
_atom_site_charge 
C1          C  0.71684814  0.78218202  0.77820338     0.03100
C2          C  0.74093367  0.75463450  0.80366730    -0.13050
C3          C  0.76790104  0.72423854  0.78385854     0.00600
C4          C  0.77974459  0.73168626  0.73993321    -0.11580
C5          C  0.76235123  0.76606344  0.71688237     0.03090
C6          C  0.72894174  0.78944632  0.73526658    -0.11000
H7          H  0.73482268  0.75485733  0.83798342     0.08690
H8          H  0.80121419  0.71072557  0.72252214     0.06220
H9          H  0.71123611  0.81194233  0.71573526     0.06060
C10         C  0.27800105  0.74745215  0.19098494     0.03100
C11         C  0.28788283  0.73917318  0.23513002    -0.13050
C12         C  0.26988260  0.70448747  0.25724185     0.00600
C13         C  0.23756962  0.68063211  0.23745030    -0.11580
C14         C  0.22408934  0.69064762  0.19556710     0.03090
C15         C  0.24658833  0.72077502  0.17143955    -0.11000
H16         H  0.30784484  0.76014080  0.25402984     0.08690
H17         H  0.22121461  0.65597227  0.25545428     0.06220
H18         H  0.23561751  0.72464736  0.13872699     0.06060
C19         C  0.75766646  0.78473322  0.18592773     0.03100
C20         C  0.74309974  0.78581378  0.22884025    -0.13050
C21         C  0.70356030  0.76737555  0.23974259     0.00600
C22         C  0.68132238  0.74431363  0.20726133    -0.11580
C23         C  0.70004525  0.73636973  0.16594022     0.03090
C24         C  0.73376092  0.76373849  0.15411603    -0.11000
H25         H  0.76311950  0.80036299  0.25360951     0.08690
H26         H  0.65067668  0.73086709  0.21573359     0.06220
H27         H  0.74392776  0.76741595  0.12109285     0.06060
C28         C  0.20886696  0.26374612  0.27185239     0.03100
C29         C  0.22924257  0.22840420  0.28977720    -0.13050
C30         C  0.26662307  0.21158230  0.27043254     0.00600
C31         C  0.28317917  0.23032609  0.23271121    -0.11580
C32         C  0.26290011  0.26573666  0.21445798     0.03090
C33         C  0.22567118  0.28210673  0.23396647    -0.11000
H34         H  0.21508167  0.21303294  0.31779019     0.08690
H35         H  0.31086716  0.21637568  0.21661315     0.06220
H36         H  0.20886704  0.30815694  0.21875425     0.06060
C37         C  0.70098155  0.20970252  0.23573872     0.03100
C38         C  0.73951740  0.18983261  0.24741369    -0.13050
C39         C  0.75379048  0.19147901  0.29043230     0.00600
C40         C  0.73039815  0.21402689  0.32161412    -0.11580
C41         C  0.69782666  0.24203889  0.30881795     0.03090
C42         C  0.67933803  0.23413342  0.26756293    -0.11000
H43         H  0.75920097  0.17410595  0.22309755     0.08690
H44         H  0.74053820  0.21186887  0.35482984     0.06220
H45         H  0.64965415  0.24909307  0.25854662     0.06060
C46         C  0.76657356  0.26834053  0.71398541     0.03100
C47         C  0.78251439  0.24886099  0.75140524    -0.13050
C48         C  0.76385702  0.21126963  0.76662897     0.00600
C49         C  0.73019436  0.19230719  0.74337284    -0.11580
C50         C  0.71408836  0.21132366  0.70554724     0.03090
C51         C  0.73251335  0.24930045  0.69098224    -0.11000
H52         H  0.80806496  0.26396631  0.76982731     0.08690
H53         H  0.71481389  0.16420541  0.75624774     0.06220
H54         H  0.71901082  0.26508224  0.66295857     0.06060
C55         C  0.21054250  0.70653868  0.72446488     0.03100
C56         C  0.24821450  0.69169136  0.74387342    -0.13050
C57         C  0.26503502  0.71198981  0.78073827     0.00600
C58         C  0.24332470  0.74667478  0.79885147    -0.11580
C59         C  0.20476643  0.76137613  0.78027410     0.03090
C60         C  0.18778605  0.74008174  0.74393273    -0.11000
H61         H  0.26592463  0.66596891  0.72871142     0.08690
H62         H  0.25751215  0.76336925  0.82619815     0.06220
H63         H  0.15823934  0.75099104  0.72922144     0.06060
O64         O  0.11817064  0.07418122  0.01630601    -0.88370
C65         C  0.99417840  0.07296161  0.97332755     0.87660
Mg66       Mg  0.14797058  0.01847727  0.03442659     1.58150
O67         O  0.00661035  0.11548380  0.07751829    -0.88100
O68         O  0.09920292  0.13495474  0.04543264    -0.75430
C69         C  0.01129502  0.92162636  0.16571134     0.92710
O70         O  0.06736246  0.00226985  0.96347669    -0.75250
O71         O  0.04710260  0.91329519  0.14706566    -0.82760
Mg72       Mg  0.08743504  0.07255575  0.95488379     1.57960
C73         C  0.94213260  0.07958707  0.17649447     0.92630
O74         O  0.11309447  0.14318859  0.95169007    -0.81020
H75         H  0.03364640  0.15697621  0.11869666    -0.06360
C76         C  0.97401932  0.98992576  0.06919395     0.87570
O77         O  0.13543838  0.03703348  0.10665521    -0.75530
O78         O  0.02781964  0.08912061  0.98761573    -0.88290
O79         O  0.93612077  0.10305414  0.14338107    -0.81100
C80         C  0.92279287  0.16433886  0.01147233     0.92740
C81         C  0.09286423  0.17746978  0.96022609     0.92600
Mg82       Mg  0.01177762  0.02623383  0.14869485     1.57950
O83         O  0.99422952  0.95802025  0.16344236    -0.81020
O84         O  0.02893995  0.09720176  0.14221092    -0.75260
O85         O  0.96237587  0.16556331  0.00108447    -0.81100
O86         O  0.14652129  0.04690687  0.91631707    -0.82820
O87         O  0.14482305  0.94760275  0.11451314    -0.81130
C88         C  0.02315384  0.12478015  0.11288264     0.87030
O89         O  0.07192290  0.01062051  0.12218292    -0.88280
O90         O  0.98373666  0.02437831  0.08625459    -0.88380
O91         O  0.00090344  0.95937568  0.06655886    -0.75440
Mg92       Mg  0.02938573  0.14668379  0.02301521     1.57970
O93         O  0.90939202  0.14066095  0.04239908    -0.82810
H94         H  0.15883732  0.10947770  0.05164812    -0.06540
O95         O  0.08870299  0.98667173  0.02989447    -0.88080
H96         H  0.06040508  0.94408402  0.99064726    -0.06360
H97         H  0.10706100  0.04247773  0.16607866    -0.06540
C98         C  0.07195056  0.97617439  0.99473427     0.87010
C99         C  0.12697005  0.10626294  0.03790153     0.87600
C100        C  0.10466051  0.03036889  0.13321747     0.87640
H101        H  0.94193588  0.98561766  0.05628881    -0.06520
O102        O  0.96153709  0.06621678  0.99757231    -0.75550
Mg103      Mg  0.07234117  0.95190946  0.08838435     1.58000
H104        H  0.99280569  0.06355519  0.93950114    -0.06540
C105        C  0.16595441  0.01285160  0.92673521     0.92630
O106        O  0.17739462  0.95891950  0.05241335    -0.82770
C107        C  0.17933074  0.95413136  0.09282705     0.92690
O108        O  0.05256369  0.17718445  0.96461091    -0.82760
Mg109      Mg  0.94758424  0.08212706  0.06955858     1.58180
O110        O  0.16534120  0.99928508  0.96543141    -0.81090
O111        O  0.94690339  0.04047560  0.17135820    -0.82790
C112        C  0.14233291  0.27291420  0.91994686     0.03100
C113        C  0.14457388  0.23131267  0.93585202    -0.13050
C114        C  0.11463477  0.21853002  0.96627280     0.00600
C115        C  0.09530258  0.24912517  0.99328359    -0.11580
C116        C  0.09894266  0.29231203  0.98376495     0.03090
C117        C  0.11997386  0.30387530  0.94476797    -0.11000
H118        H  0.16136345  0.20704066  0.91738993     0.08690
H119        H  0.07254473  0.23910726  0.01799959     0.06220
H120        H  0.11508586  0.33532791  0.93214535     0.06060
C121        C  0.92354656  0.13392300  0.28357874     0.03100
C122        C  0.92310700  0.12658558  0.23857286    -0.13050
C123        C  0.95054922  0.09680543  0.22033391     0.00600
C124        C  0.98194880  0.07744906  0.24670388    -0.11580
C125        C  0.98450430  0.08617725  0.29153071     0.03090
C126        C  0.95441373  0.11419631  0.31006214    -0.11000
H127        H  0.89755084  0.13978859  0.21885367     0.08690
H128        H  0.00238331  0.05294272  0.23297679     0.06220
H129        H  0.95228617  0.11745086  0.34509054     0.06060
C130        C  0.28320237  0.91785568  0.13576402     0.03100
C131        C  0.23881494  0.92624577  0.13714063    -0.13050
C132        C  0.22221988  0.95917848  0.11284037     0.00600
C133        C  0.25058271  0.98984690  0.09561189    -0.11580
C134        C  0.29554469  0.98500418  0.09826146     0.03090
C135        C  0.31172221  0.94780295  0.11753531    -0.11000
H136        H  0.21690854  0.90202762  0.14882033     0.08690
H137        H  0.23768162  0.01471094  0.07526983     0.06220
H138        H  0.34548703  0.93991033  0.11386363     0.06060
O139        O  0.97559450  0.61248017  0.40937152    -0.88370
C140        C  0.00462160  0.48631684  0.41223604     0.87660
Mg141      Mg  0.95687692  0.64140262  0.46778653     1.58150
O142        O  0.90780164  0.51055217  0.36020181    -0.88100
O143        O  0.95210969  0.59649587  0.34414408    -0.75430
C144        C  0.81268715  0.50978323  0.55677274     0.92710
O145        O  0.02266153  0.55961977  0.48497694    -0.75250
O146        O  0.83651268  0.54035002  0.57006694    -0.82760
Mg147      Mg  0.03407525  0.57782503  0.41296593     1.57960
C148        C  0.79829657  0.45878354  0.38545741     0.92630
O149        O  0.04338430  0.60067705  0.33964626    -0.81020
H150        H  0.87444913  0.54645673  0.31882381    -0.06360
C151        C  0.90548474  0.47121369  0.48596147     0.87570
O152        O  0.88558349  0.63470450  0.44780856    -0.75530
O153        O  0.99611257  0.52116727  0.39585898    -0.88290
O154        O  0.83294375  0.45033413  0.36454984    -0.81100
C155        C  0.96697286  0.42051633  0.31388598     0.92740
C156        C  0.03742980  0.57746820  0.30606516     0.92600
Mg157      Mg  0.83206291  0.51988020  0.44904512     1.57950
O158        O  0.81162868  0.49923489  0.51685522    -0.81020
O159        O  0.84659754  0.54067359  0.37833734    -0.75260
O160        O  0.98422108  0.45686692  0.31685785    -0.81100
O161        O  0.07419098  0.63526915  0.43911522    -0.82820
O162        O  0.87599876  0.63804456  0.54207866    -0.81130
C163        C  0.87635386  0.53280124  0.35089808     0.87030
O164        O  0.86496591  0.57271336  0.47172348    -0.88280
O165        O  0.88926270  0.48426938  0.45166179    -0.88380
O166        O  0.91235550  0.49554277  0.51857979    -0.75440
Mg167      Mg  0.96795786  0.52515997  0.33389353     1.57970
O168        O  0.93077372  0.41253898  0.33196878    -0.82810
H169        H  0.94771030  0.65536303  0.37097060    -0.06540
O170        O  0.95679404  0.58175105  0.49857398    -0.88080
H171        H  0.99315026  0.55375386  0.54375986    -0.06360
H172        H  0.82456256  0.61225279  0.44184136    -0.06540
C173        C  0.99071022  0.56476934  0.51065862     0.87010
C174        C  0.95821310  0.62299721  0.37491834     0.87600
C175        C  0.85679123  0.60667604  0.45372764     0.87640
H176        H  0.91486008  0.43833455  0.48796481    -0.06520
O177        O  0.97674197  0.45651084  0.41419966    -0.75550
Mg178      Mg  0.89685181  0.56600450  0.53236965     1.58000
H179        H  0.03648049  0.48103605  0.42521467    -0.06540
C180        C  0.06364925  0.65687672  0.47280963     0.92630
O181        O  0.93894125  0.66786983  0.53096724    -0.82770
C182        C  0.89888858  0.67114946  0.53563119     0.92690
O183        O  0.03276875  0.53835765  0.31053284    -0.82760
Mg184      Mg  0.90528574  0.45112397  0.39162512     1.58180
O185        O  0.02546034  0.65657986  0.48757545    -0.81090
O186        O  0.79923540  0.46342716  0.42607571    -0.82790
C187        C  0.69505549  0.41875264  0.35081992     0.03100
C188        C  0.73824513  0.42999756  0.34287347    -0.13050
C189        C  0.75585678  0.46435838  0.36470723     0.00600
C190        C  0.72808247  0.49540970  0.38235929    -0.11580
C191        C  0.68358031  0.48797310  0.38558069     0.03090
C192        C  0.66753025  0.44832029  0.37132112    -0.11000
H193        H  0.76009980  0.40657260  0.32933408     0.08690
H194        H  0.74184786  0.52187867  0.40023097     0.06220
H195        H  0.63534870  0.43883702  0.38076767     0.06060
C196        C  0.05674356  0.62857798  0.19826916     0.03100
C197        C  0.05761986  0.62240459  0.24336706    -0.13050
C198        C  0.02863711  0.59481501  0.26260548     0.00600
C199        C  0.99558700  0.57656443  0.23712572    -0.11580
C200        C  0.99274418  0.58412355  0.19221439     0.03090
C201        C  0.02411932  0.61001547  0.17271833    -0.11000
H202        H  0.08433588  0.63465258  0.26238135     0.08690
H203        H  0.97423452  0.55333140  0.25153319     0.06220
H204        H  0.02574349  0.61227240  0.13761552     0.06060
C205        C  0.83228632  0.76986716  0.54905816     0.03100
C206        C  0.84454353  0.72717852  0.55068614    -0.13050
C207        C  0.87965667  0.71296786  0.52694905     0.00600
C208        C  0.89984255  0.74061818  0.49739574    -0.11580
C209        C  0.88668850  0.78303148  0.49316084     0.03090
C210        C  0.85310062  0.79790188  0.52010907    -0.11000
H211        H  0.83017849  0.70637901  0.57464171     0.08690
H212        H  0.92768134  0.72973563  0.47916206     0.06220
H213        H  0.84581506  0.83141973  0.52137822     0.06060
O214        O  0.00384608  0.86174883  0.40882580    -0.88370
C215        C  0.96785773  0.98651730  0.41437762     0.87660
Mg216      Mg  0.02321332  0.83112462  0.46531336     1.58150
O217        O  0.06868592  0.96882135  0.36557825    -0.88100
O218        O  0.02897409  0.88045415  0.34514422    -0.75430
C219        C  0.15701270  0.96548241  0.56364437     0.92710
O220        O  0.95443265  0.91113623  0.48589836    -0.75250
O221        O  0.13907178  0.93013897  0.57268594    -0.82760
Mg222      Mg  0.94391580  0.89414623  0.41332597     1.57960
C223        C  0.17223923  0.02899212  0.40068687     0.92630
O224        O  0.93633799  0.87224778  0.33933186    -0.81020
H225        H  0.10671032  0.93869606  0.32283435    -0.06360
C226        C  0.06345598  0.00192662  0.49396302     0.87570
O227        O  0.09452678  0.84228904  0.44611533    -0.75530
O228        O  0.97952475  0.95245283  0.39785137    -0.88290
O229        O  0.13880530  0.03471445  0.37732000    -0.81100
C230        C  0.00761984  0.05568474  0.31930231     0.92740
C231        C  0.94295574  0.89559625  0.30623933     0.92600
Mg232      Mg  0.14069361  0.96179331  0.45637744     1.58190
O233        O  0.15511906  0.98095544  0.52581546    -0.81020
O234        O  0.13198799  0.94383544  0.38358882    -0.75260
O235        O  0.99236366  0.01840230  0.32004428    -0.81100
O236        O  0.90494145  0.83535970  0.43834858    -0.82820
O237        O  0.10321654  0.83330590  0.53941944    -0.81130
C238        C  0.10242552  0.95019798  0.35573855     0.87030
O239        O  0.11168917  0.90432349  0.47329275    -0.88280
O240        O  0.08051090  0.99179560  0.45883163    -0.88380
O241        O  0.05951132  0.97571285  0.52524534    -0.75440
Mg242      Mg  0.01042595  0.95091769  0.33670034     1.57970
O243        O  0.04144240  0.06573233  0.34066111    -0.82810
H244        H  0.03441588  0.82102789  0.36939063    -0.06540
O245        O  0.02029182  0.88910403  0.49957951    -0.88080
H246        H  0.98282897  0.91560862  0.54529991    -0.06360
H247        H  0.15411147  0.86848917  0.44068673    -0.06540
C248        C  0.98593975  0.90541414  0.51182536     0.87010
C249        C  0.02259283  0.85286675  0.37442092     0.87600
C250        C  0.12168681  0.87175585  0.45312293     0.87640
H251        H  0.05146550  0.03381141  0.49816636    -0.06520
O252        O  0.99367774  0.01778717  0.41863625    -0.75550
Mg253      Mg  0.07942628  0.90521084  0.53402792     1.58000
H254        H  0.93500044  0.98976865  0.42557878    -0.06540
C255        C  0.91650837  0.81250646  0.47048726     0.92630
O256        O  0.04141584  0.80175124  0.52650923    -0.82770
C257        C  0.08130566  0.79952081  0.53270270     0.92690
O258        O  0.94703177  0.93480881  0.31122446    -0.82760
Mg259      Mg  0.06558485  0.02731652  0.40010058     1.58180
O260        O  0.95518181  0.81244000  0.48373590    -0.81090
O261        O  0.16815643  0.02347147  0.44080709    -0.82790
C262        C  0.14170786  0.69917026  0.55684508     0.03100
C263        C  0.12319369  0.67086521  0.52642799    -0.13050
C264        C  0.09388872  0.68595899  0.49533690     0.00600
C265        C  0.08324654  0.72920657  0.49597584    -0.11580
C266        C  0.10101495  0.75734309  0.52692160     0.03090
C267        C  0.13157875  0.74248744  0.55585779    -0.11000
H268        H  0.12865326  0.63714177  0.52942294     0.08690
H269        H  0.05820621  0.74035475  0.47434321     0.06220
H270        H  0.14385061  0.76362850  0.58088349     0.06060
C271        C  0.27671179  0.05087617  0.34275633     0.03100
C272        C  0.23240462  0.05062694  0.35190246    -0.13050
C273        C  0.21570419  0.02278412  0.38230051     0.00600
C274        C  0.24292083  0.99214337  0.40088826    -0.11580
C275        C  0.28707835  0.99034682  0.39091103     0.03090
C276        C  0.30415906  0.02065612  0.36202605    -0.11000
H277        H  0.21187059  0.07525502  0.33893510     0.08690
H278        H  0.23018689  0.97115689  0.42556760     0.06220
H279        H  0.33866173  0.02285489  0.35723977     0.06060
C280        C  0.92714954  0.84189010  0.19835336     0.03100
C281        C  0.95848105  0.86234765  0.17282025    -0.13050
C282        C  0.98805837  0.89025107  0.19238888     0.00600
C283        C  0.98464022  0.89812971  0.23725810    -0.11580
C284        C  0.95259101  0.87839492  0.26265764     0.03090
C285        C  0.92551160  0.84879048  0.24343828    -0.11000
H286        H  0.95715789  0.85965795  0.13770825     0.08690
H287        H  0.00471306  0.92254909  0.25173739     0.06220
H288        H  0.89942682  0.83534688  0.26241604     0.06060
O289        O  0.50467817  0.36308540  0.90219166    -0.88370
C290        C  0.47153615  0.48847658  0.91134626     0.87660
Mg291      Mg  0.52815746  0.33152510  0.95599474     1.58150
O292        O  0.56956806  0.46850863  0.85790871    -0.88100
O293        O  0.52663451  0.38181804  0.83739889    -0.75430
C294        C  0.66329293  0.46594799  0.05339772     0.92710
O295        O  0.46044870  0.41161163  0.98305591    -0.75250
O296        O  0.64628309  0.43018620  0.06229298    -0.82760
Mg297      Mg  0.44563590  0.39604744  0.91122822     1.57960
C298        C  0.67648109  0.52454877  0.88855400     0.92630
O299        O  0.43348725  0.37535106  0.83752930    -0.81020
H300        H  0.60510625  0.43694100  0.81404345    -0.06360
C301        C  0.56920947  0.50152339  0.98583901     0.87570
O302        O  0.59770110  0.34438410  0.93270001    -0.75530
O303        O  0.48138833  0.45410675  0.89420161    -0.88290
O304        O  0.64272716  0.53107013  0.86584289    -0.81100
C305        C  0.50863125  0.55765369  0.81539034     0.92740
C306        C  0.43952056  0.39855077  0.80417007     0.92600
Mg307      Mg  0.64550936  0.46135473  0.94594967     1.57950
O308        O  0.66141114  0.48114471  0.01540004    -0.81020
O309        O  0.63336196  0.44285717  0.87341734    -0.75260
O310        O  0.49167277  0.52110780  0.81751639    -0.81100
O311        O  0.40784545  0.33713989  0.93874923    -0.82820
O312        O  0.61274942  0.33470426  0.02601772    -0.81130
C313        C  0.60250800  0.44905596  0.84689551     0.87030
O314        O  0.61697373  0.40460651  0.96298316    -0.88280
O315        O  0.58567239  0.49142361  0.95038202    -0.88380
O316        O  0.56568722  0.47526031  0.01712819    -0.75440
Mg317      Mg  0.50932654  0.45268497  0.83155057     1.57970
O318        O  0.54446879  0.56606589  0.83392327    -0.82810
H319        H  0.53137156  0.32190553  0.86044717    -0.06540
O320        O  0.52674284  0.38861009  0.99215526    -0.88080
H321        H  0.49215685  0.41394147  0.04077403    -0.06360
H322        H  0.65716793  0.37037541  0.92597318    -0.06540
C323        C  0.49324368  0.40469305  0.00688985     0.87010
C324        C  0.52095277  0.35404322  0.86658189     0.87600
C325        C  0.62550606  0.37308386  0.94040540     0.87640
H326        H  0.55725369  0.53339333  0.99026857    -0.06520
O327        O  0.49833390  0.51917879  0.91402085    -0.75550
Mg328      Mg  0.58662291  0.40501551  0.02443253     1.58000
H329        H  0.43940082  0.49258841  0.92426737    -0.06540
C330        C  0.42162125  0.31303801  0.96908510     0.92630
O331        O  0.55216529  0.30057912  0.01361865    -0.82770
C332        C  0.59252802  0.30046932  0.01719361     0.92690
O333        O  0.44435883  0.43776368  0.80894205    -0.82760
Mg334      Mg  0.56982900  0.52694386  0.89218185     1.58180
O335        O  0.46136741  0.31176384  0.97872105    -0.81090
O336        O  0.67306515  0.52199081  0.92903652    -0.82790
C337        C  0.42669310  0.33758923  0.69922141     0.03100
C338        C  0.42400228  0.34791648  0.74366928    -0.13050
C339        C  0.44872996  0.38065196  0.76066881     0.00600
C340        C  0.47934380  0.40063995  0.73379121    -0.11580
C341        C  0.48402833  0.38930047  0.68975522     0.03090
C342        C  0.45720371  0.35769834  0.67242458    -0.11000
H343        H  0.39884631  0.33418990  0.76365631     0.08690
H344        H  0.49779986  0.42717294  0.74641336     0.06220
H345        H  0.45687914  0.35190661  0.63766181     0.06060
C346        C  0.64135474  0.20536442  0.05670851     0.03100
C347        C  0.64446683  0.24666308  0.04013405    -0.13050
C348        C  0.61434181  0.25965991  0.01017346     0.00600
C349        C  0.59445728  0.22923382  0.98342277    -0.11580
C350        C  0.59720944  0.18611187  0.99332026     0.03090
C351        C  0.61806050  0.17456146  0.03242624    -0.11000
H352        H  0.66203392  0.27085065  0.05796566     0.08690
H353        H  0.57175422  0.23944770  0.95885693     0.06220
H354        H  0.61256517  0.14332182  0.04539127     0.06060
C355        C  0.78162142  0.55418063  0.84338272     0.03100
C356        C  0.73723318  0.54515756  0.84123939    -0.13050
C357        C  0.71962247  0.51621199  0.86979542     0.00600
C358        C  0.74712293  0.48704074  0.89050074    -0.11580
C359        C  0.79222799  0.49027327  0.88681153     0.03090
C360        C  0.80941034  0.52572738  0.86482362    -0.11000
H361        H  0.71575564  0.56773355  0.82604859     0.08690
H362        H  0.73354135  0.46444601  0.91313519     0.06220
H363        H  0.84320665  0.53352250  0.86842030     0.06060
O364        O  0.90946508  0.46484938  0.11665179    -0.88370
C365        C  0.91088396  0.50430575  0.99041850     0.87660
Mg366      Mg  0.96859895  0.44903648  0.14429321     1.58150
O367        O  0.86858821  0.40304164  0.00446837    -0.88100
O368        O  0.84795159  0.43622969  0.09707404    -0.75430
C369        C  0.06748181  0.32086905  0.00490142     0.92710
O370        O  0.98114569  0.51879467  0.06480810    -0.75250
O371        O  0.07583274  0.34013896  0.04058273    -0.82760
Mg372      Mg  0.90928300  0.52456680  0.08531164     1.57960
C373        C  0.90441348  0.30383799  0.94072320     0.92630
O374        O  0.83651429  0.52702368  0.11023153    -0.81020
H375        H  0.82812838  0.36335587  0.03446464    -0.06360
C376        C  0.99481182  0.41215705  0.96784282     0.87570
O377        O  0.95236137  0.37802879  0.13248782    -0.75530
O378        O  0.89444777  0.49138843  0.02473918    -0.88290
O379        O  0.88078857  0.33648610  0.93486594    -0.81100
C380        C  0.81918784  0.46611232  0.91794401     0.92740
C381        C  0.80246827  0.51975021  0.08810281     0.92600
Mg382      Mg  0.96095705  0.33471461  0.00843773     1.57950
O383        O  0.03034315  0.32214424  0.98781080    -0.81020
O384        O  0.88911366  0.34087341  0.02804893    -0.75260
O385        O  0.81849923  0.47857309  0.95730515    -0.81100
O386        O  0.93349984  0.56234927  0.14595239    -0.82820
O387        O  0.04352119  0.37328010  0.13930480    -0.81130
C388        C  0.86037975  0.36902669  0.02251152     0.87030
O389        O  0.97778847  0.36296614  0.06770490    -0.88280
O390        O  0.96075256  0.39453193  0.97884662    -0.88380
O391        O  0.02624760  0.41685575  0.99420711    -0.75440
Mg392      Mg  0.83631040  0.45714600  0.02590476     1.57970
O393        O  0.84120157  0.43373052  0.90621375    -0.82810
H394        H  0.87393808  0.42990094  0.15728288    -0.06540
O395        O  0.99857747  0.45381711  0.08321202    -0.88080
H396        H  0.04086356  0.49362126  0.05587541    -0.06360
H397        H  0.94838301  0.31960572  0.10458039    -0.06540
C398        C  0.00840881  0.48867505  0.06759368     0.87010
C399        C  0.87714765  0.44340287  0.12523169     0.87600
C400        C  0.95925822  0.35198406  0.10147608     0.87640
H401        H  0.99789883  0.42398842  0.93508820    -0.06520
O402        O  0.91703287  0.47993721  0.95764808    -0.75550
Mg403      Mg  0.03617917  0.39736878  0.06619232     1.58000
H404        H  0.92071392  0.53708651  0.98837242    -0.06540
C405        C  0.96868722  0.55323178  0.16523506     0.92630
O406        O  0.03285958  0.43534339  0.16869579    -0.82770
C407        C  0.03690351  0.39618203  0.17297400     0.92690
O408        O  0.80477368  0.51483753  0.04757560    -0.82760
Mg409      Mg  0.90129558  0.40917280  0.94427775     1.58180
O410        O  0.98486042  0.51648952  0.16276897    -0.81090
O411        O  0.94437012  0.30822627  0.94494202    -0.82790
C412        C  0.69795648  0.56055959  0.12061690     0.03100
C413        C  0.67081662  0.53053863  0.10024091    -0.13050
C414        C  0.68743949  0.49114029  0.08604106     0.00600
C415        C  0.73185535  0.48404883  0.08972801    -0.11580
C416        C  0.75926835  0.51535045  0.10737929     0.03090
C417        C  0.74141807  0.55031333  0.12797201    -0.11000
H418        H  0.63839034  0.53941691  0.09120289     0.08690
H419        H  0.74590930  0.45729259  0.07256692     0.06220
H420        H  0.76302685  0.57429626  0.14092011     0.06060
C421        C  0.04738727  0.33678140  0.27807381     0.03100
C422        C  0.01721526  0.35837753  0.30454048    -0.13050
C423        C  0.99003539  0.38921993  0.28623437     0.00600
C424        C  0.99518016  0.39901919  0.24205666    -0.11580
C425        C  0.02625920  0.37847543  0.21595981     0.03090
C426        C  0.05053181  0.34604041  0.23358686    -0.11000
H427        H  0.01730905  0.35360938  0.33938281     0.08690
H428        H  0.97690231  0.42511546  0.22872530     0.06220
H429        H  0.07555116  0.33138433  0.21397653     0.06060
C430        C  0.84131810  0.20232024  0.92800085     0.03100
C431        C  0.86124290  0.17599749  0.95902062    -0.13050
C432        C  0.89373232  0.19255131  0.98626524     0.00600
C433        C  0.90623409  0.23513945  0.98074127    -0.11580
C434        C  0.88629065  0.26140999  0.94974368     0.03090
C435        C  0.85271248  0.24524125  0.92504914    -0.11000
H436        H  0.85412016  0.14241335  0.95933042     0.08690
H437        H  0.93311841  0.24737198  0.99947550     0.06220
H438        H  0.83855641  0.26483128  0.90001468     0.06060
O439        O  0.40760530  0.00998085  0.86547806    -0.88370
C440        C  0.41472459  0.97192575  0.99244431     0.87660
Mg441      Mg  0.46428532  0.02888826  0.83435552     1.58150
O442        O  0.36770618  0.07131892  0.97744508    -0.88100
O443        O  0.34487607  0.03441740  0.88657188    -0.75430
C444        C  0.56535304  0.15788029  0.97218497     0.92710
O445        O  0.48401015  0.95931943  0.91372011    -0.75250
O446        O  0.57303529  0.13964666  0.93575801    -0.82760
Mg447      Mg  0.41182437  0.95026281  0.89725207     1.57960
C448        C  0.40344544  0.17278852  0.03920991     0.92630
O449        O  0.33847243  0.94315190  0.87627521    -0.81020
H450        H  0.32610202  0.10944240  0.94717658    -0.06360
C451        C  0.49498338  0.06529154  0.00982300     0.87570
O452        O  0.44676582  0.09911864  0.84752450    -0.75530
O453        O  0.39774081  0.98387955  0.95813672    -0.88290
O454        O  0.38000537  0.13998685  0.04533872    -0.81100
C455        C  0.32252257  0.00872397  0.06669579     0.92740
C456        C  0.30544667  0.94834379  0.90050314     0.92600
Mg457      Mg  0.45882327  0.14223660  0.97079805     1.57950
O458        O  0.52851005  0.15594451  0.99000547    -0.81020
O459        O  0.38653675  0.13377643  0.95279081    -0.75260
O460        O  0.32312447  0.99417459  0.02813217    -0.81100
O461        O  0.43510867  0.91321775  0.83567539    -0.82820
O462        O  0.53895147  0.10661514  0.83694947    -0.81130
C463        C  0.35856186  0.10480911  0.95886255     0.87030
O464        O  0.47475329  0.11468112  0.91098697    -0.88280
O465        O  0.46037016  0.08255029  0.00027329    -0.88380
O466        O  0.52573016  0.06147185  0.98235675    -0.75440
Mg467      Mg  0.33765201  0.01457244  0.95867208     1.57970
O468        O  0.34261768  0.04282165  0.07679592    -0.82810
H469        H  0.36838864  0.04115732  0.82528025    -0.06540
O470        O  0.49794997  0.02461671  0.89352731    -0.88080
H471        H  0.54317705  0.98670752  0.91840394    -0.06360
H472        H  0.44294860  0.15741750  0.87564499    -0.06540
C473        C  0.50994525  0.99030001  0.90870263     0.87010
C474        C  0.37359542  0.02877395  0.85752714     0.87600
C475        C  0.45462476  0.12529324  0.87813802     0.87640
H476        H  0.49919133  0.05303810  0.04226393    -0.06520
O477        O  0.41965074  0.99683460  0.02499665    -0.75550
Mg478      Mg  0.53391321  0.08189430  0.91025000     1.58000
H479        H  0.42573641  0.93957105  0.99481160    -0.06540
C480        C  0.46739113  0.92470750  0.81271510     0.92630
O481        O  0.52633141  0.04532493  0.80595913    -0.82770
C482        C  0.53163146  0.08451675  0.80279703     0.92690
O483        O  0.30989478  0.95340840  0.94074388    -0.82760
Mg484      Mg  0.40189330  0.06750488  0.03691735     1.58180
O485        O  0.48109143  0.96249695  0.81351732    -0.81090
O486        O  0.44335062  0.16851286  0.03467675    -0.82790
C487        C  0.55180501  0.13906673  0.69664121     0.03100
C488        C  0.52125126  0.11854892  0.66978257    -0.13050
C489        C  0.49020218  0.09133104  0.68822155     0.00600
C490        C  0.49167294  0.08410201  0.73314206    -0.11580
C491        C  0.52352819  0.10288133  0.75964623     0.03090
C492        C  0.55190908  0.13189650  0.74164756    -0.11000
H493        H  0.52375389  0.12121014  0.63477352     0.08690
H494        H  0.47046016  0.06031399  0.74683536     0.06220
H495        H  0.57739583  0.14512344  0.76166372     0.06060
C496        C  0.33912510  0.27359200  0.05165262     0.03100
C497        C  0.35963734  0.30041787  0.02132441    -0.13050
C498        C  0.39275388  0.28442284  0.99439973     0.00600
C499        C  0.40552280  0.24193234  0.99984045    -0.11580
C500        C  0.38523192  0.21519806  0.03034833     0.03090
C501        C  0.35100899  0.23082153  0.05459962    -0.11000
H502        H  0.35218036  0.33390919  0.02110163     0.08690
H503        H  0.43275911  0.23009564  0.98132020     0.06220
H504        H  0.33651109  0.21089062  0.07923561     0.06060
C505        C  0.19780444  0.92237419  0.85268388     0.03100
C506        C  0.17212803  0.95468801  0.87113101    -0.13050
C507        C  0.19155719  0.98771938  0.89522486     0.00600
C508        C  0.23637032  0.98713862  0.90080952    -0.11580
C509        C  0.26182529  0.95432607  0.88321852     0.03090
C510        C  0.24267869  0.92321370  0.85772798    -0.11000
H511        H  0.13734901  0.95205181  0.87000604     0.08690
H512        H  0.25102325  0.01017329  0.92255195     0.06220
H513        H  0.26199803  0.89695017  0.84588170     0.06060
O514        O  0.61526872  0.57125441  0.51216370    -0.88370
C515        C  0.49133986  0.57480873  0.47021113     0.87660
Mg516      Mg  0.64116662  0.51187745  0.52567688     1.58150
O517        O  0.50489292  0.61410447  0.57509018    -0.88100
O518        O  0.59793947  0.63129500  0.54406096    -0.75430
C519        C  0.50610909  0.41947713  0.66079237     0.92710
O520        O  0.56126170  0.50431907  0.45558615    -0.75250
O521        O  0.53930431  0.40929986  0.63848019    -0.82760
Mg522      Mg  0.58476752  0.57442653  0.45103182     1.57960
C523        C  0.44063438  0.58023284  0.67429467     0.92630
O524        O  0.61209992  0.64505649  0.45177904    -0.81020
H525        H  0.53338441  0.65446546  0.61640581    -0.06360
C526        C  0.46662363  0.49022867  0.56614571     0.87570
O527        O  0.63271393  0.52777455  0.59930454    -0.75530
O528        O  0.52526205  0.59075013  0.48419900    -0.88290
O529        O  0.43422199  0.60333402  0.64096306    -0.81100
C530        C  0.42189396  0.66643019  0.51021291     0.92740
C531        C  0.59250951  0.67962417  0.46099344     0.92600
Mg532      Mg  0.50920192  0.52419120  0.64465431     1.57950
O533        O  0.49079239  0.45670049  0.66032090    -0.81020
O534        O  0.52830108  0.59438442  0.63884606    -0.75260
O535        O  0.46165290  0.66757631  0.50045696    -0.81100
O536        O  0.64440761  0.54938979  0.41217308    -0.82820
O537        O  0.63669358  0.43885662  0.60209413    -0.81130
C538        C  0.52218245  0.62255466  0.61027631     0.87030
O539        O  0.56763671  0.50596517  0.61546759    -0.88280
O540        O  0.47873900  0.52391955  0.58314995    -0.88380
O541        O  0.49201128  0.45877120  0.56136610    -0.75440
Mg542      Mg  0.52831078  0.64662653  0.52208159     1.57970
O543        O  0.40794217  0.64235280  0.54052143    -0.82810
H544        H  0.65648638  0.60329221  0.55007259    -0.06540
O545        O  0.57951794  0.48516253  0.52183041    -0.88080
H546        H  0.54939986  0.44579352  0.48044521    -0.06360
H547        H  0.60634433  0.53294705  0.65972417    -0.06540
C548        C  0.56283783  0.47695004  0.48604608     0.87010
C549        C  0.62477136  0.60186395  0.53568391     0.87600
C550        C  0.60211640  0.52258539  0.62643663     0.87640
H551        H  0.43374708  0.48748637  0.55495335    -0.06520
O552        O  0.45893886  0.56773748  0.49476294    -0.75550
Mg553      Mg  0.56368438  0.44816819  0.57961551     1.58000
H554        H  0.48953639  0.56575509  0.43630811    -0.06540
C555        C  0.65902570  0.51216898  0.41879613     0.92630
O556        O  0.66474673  0.44815085  0.53785574    -0.82770
C557        C  0.66976887  0.44354337  0.57789053     0.92690
O558        O  0.55227839  0.67988111  0.46580236    -0.82760
Mg559      Mg  0.44484623  0.58282820  0.56699400     1.58180
O560        O  0.65475713  0.49446048  0.45536708    -0.81090
O561        O  0.44544673  0.54097697  0.66973577    -0.82790
C562        C  0.64340572  0.77368851  0.41886653     0.03100
C563        C  0.64495195  0.73243579  0.43575100    -0.13050
C564        C  0.61471088  0.72067214  0.46629584     0.00600
C565        C  0.59565015  0.75217693  0.49253921    -0.11580
C566        C  0.60006310  0.79520758  0.48226350     0.03090
C567        C  0.62138311  0.80553979  0.44297224    -0.11000
H568        H  0.66164659  0.70756595  0.41807116     0.08690
H569        H  0.57263682  0.74299258  0.51735268     0.06220
H570        H  0.61705248  0.83678656  0.42966175     0.06060
C571        C  0.42727373  0.63950892  0.78013589     0.03100
C572        C  0.45811446  0.61913848  0.80636569    -0.13050
C573        C  0.48578467  0.58862298  0.78793399     0.00600
C574        C  0.48126049  0.57850056  0.74368748    -0.11580
C575        C  0.44989581  0.59813439  0.71768212     0.03090
C576        C  0.42451369  0.62993322  0.73556163    -0.11000
H577        H  0.45789107  0.62422365  0.84122877     0.08690
H578        H  0.50029265  0.55278826  0.73020136     0.06220
H579        H  0.39916367  0.64378364  0.71606070     0.06060
C580        C  0.77371968  0.42807765  0.63876627     0.03100
C581        C  0.80091684  0.45803117  0.61837287    -0.13050
C582        C  0.78409864  0.48533811  0.58646020     0.00600
C583        C  0.74042955  0.48110248  0.57503426    -0.11580
C584        C  0.71334264  0.45125724  0.59537990     0.03090
C585        C  0.72977856  0.42627122  0.62826166    -0.11000
H586        H  0.83520371  0.45773224  0.62477684     0.08690
H587        H  0.72793283  0.49996229  0.54857531     0.06220
H588        H  0.70937224  0.40213732  0.64254883     0.06060
O589        O  0.40954572  0.96772485  0.61611227    -0.88370
C590        C  0.40621486  0.00667492  0.49072396     0.87660
Mg591      Mg  0.47000092  0.95468201  0.64213496     1.58150
O592        O  0.36909322  0.90390114  0.50536252    -0.88100
O593        O  0.34916537  0.93555022  0.59882502    -0.75430
C594        C  0.56895825  0.82480824  0.50293760     0.92710
O595        O  0.47723779  0.02285992  0.56154940    -0.75250
O596        O  0.57753473  0.84499289  0.53813702    -0.82760
Mg597      Mg  0.40566544  0.02693643  0.58465960     1.57960
C598        C  0.40499102  0.80620990  0.44042685     0.92630
O599        O  0.33321214  0.02646106  0.61193435    -0.81020
H600        H  0.32955805  0.86314181  0.53505257    -0.06360
C601        C  0.49424099  0.91520810  0.46573397     0.87570
O602        O  0.45533553  0.88292724  0.63185216    -0.75530
O603        O  0.39008555  0.99338588  0.52506692    -0.88290
O604        O  0.38138577  0.83886100  0.43454011    -0.81100
C605        C  0.31538774  0.96578189  0.42046009     0.92740
C606        C  0.29828720  0.01674953  0.59206820     0.92600
Mg607      Mg  0.46242616  0.83775752  0.50789219     1.57950
O608        O  0.53171904  0.82592792  0.48604406    -0.81020
O609        O  0.39099773  0.84208395  0.52845434    -0.75260
O610        O  0.31378845  0.97586486  0.46046722    -0.81100
O611        O  0.43060169  0.06625071  0.64403987    -0.82820
O612        O  0.54594510  0.88054566  0.63744723    -0.81130
C613        C  0.36164538  0.86956406  0.52304964     0.87030
O614        O  0.47962366  0.86713349  0.56671299    -0.88280
O615        O  0.46060501  0.89745092  0.47772980    -0.88380
O616        O  0.52608516  0.92067758  0.49141731    -0.75440
Mg617      Mg  0.33422810  0.95552911  0.52816596     1.57970
O618        O  0.33962270  0.93567675  0.40695805    -0.82810
H619        H  0.37725311  0.93150884  0.65826369    -0.06540
O620        O  0.49824555  0.95883375  0.58016584    -0.88080
H621        H  0.53744400  0.99974989  0.55001992    -0.06360
H622        H  0.45184839  0.82395319  0.60507502    -0.06540
C623        C  0.50581190  0.99375917  0.56339627     0.87010
C624        C  0.37870133  0.94475898  0.62597620     0.87600
C625        C  0.46200092  0.85646185  0.60110782     0.87640
H626        H  0.49660775  0.92643587  0.43269325    -0.06520
O627        O  0.41401229  0.98238275  0.45827395    -0.75550
Mg628      Mg  0.53721044  0.90267931  0.56360965     1.58000
H629        H  0.41478621  0.03978632  0.48857075    -0.06540
C630        C  0.46739262  0.05938698  0.66119310     0.92630
O631        O  0.53483362  0.94299778  0.66587062    -0.82770
C632        C  0.53939701  0.90396913  0.67082097     0.92690
O633        O  0.29851919  0.01009441  0.55166452    -0.82760
Mg634      Mg  0.40040116  0.91154349  0.44437781     1.58180
O635        O  0.48540677  0.02346579  0.65812395    -0.81090
O636        O  0.44497316  0.81032785  0.44505130    -0.82790
C637        C  0.34349645  0.70467792  0.42396271     0.03100
C638        C  0.36189037  0.67830389  0.45597899    -0.13050
C639        C  0.39316100  0.69480889  0.48476992     0.00600
C640        C  0.40546602  0.73752587  0.48023426    -0.11580
C641        C  0.38663532  0.76384937  0.44860946     0.03090
C642        C  0.35443134  0.74769705  0.42215575    -0.11000
H643        H  0.35527902  0.64461557  0.45543006     0.08690
H644        H  0.43153874  0.74978217  0.50009348     0.06220
H645        H  0.34145766  0.76736187  0.39653371     0.06060
C646        C  0.19656553  0.05960611  0.62832620     0.03100
C647        C  0.16796761  0.03017001  0.60912835    -0.13050
C648        C  0.18276504  0.98989395  0.59558579     0.00600
C649        C  0.22716812  0.98174468  0.59757578    -0.11580
C650        C  0.25601703  0.01255951  0.61381556     0.03090
C651        C  0.23961391  0.04747110  0.63565356    -0.11000
H652        H  0.13592432  0.04001437  0.59994714     0.08690
H653        H  0.23990192  0.95465702  0.57991523     0.06220
H654        H  0.26229717  0.07037558  0.64874865     0.06060
C655        C  0.55166662  0.84650145  0.77685661     0.03100
C656        C  0.51920943  0.86520352  0.80249117    -0.13050
C657        C  0.49134933  0.89511425  0.78411037     0.00600
C658        C  0.49704806  0.90595869  0.74008675    -0.11580
C659        C  0.52928500  0.88670202  0.71422086     0.03090
C660        C  0.55514904  0.85584942  0.73243316    -0.11000
H661        H  0.51856274  0.85975827  0.83723109     0.08690
H662        H  0.47798585  0.93146923  0.72670890     0.06220
H663        H  0.58139921  0.84268210  0.71336473     0.06060
C664        C  0.20082179  0.26960051  0.74074918     0.03100
C665        C  0.24063721  0.28765622  0.73007653    -0.13050
C666        C  0.25603635  0.28551018  0.68739369     0.00600
C667        C  0.23190765  0.26483112  0.65546496    -0.11580
C668        C  0.19854433  0.23751203  0.66786456     0.03090
C669        C  0.17892746  0.24618269  0.70839723    -0.11000
H670        H  0.26065535  0.30186452  0.75505689     0.08690
H671        H  0.24308955  0.26575409  0.62242681     0.06220
H672        H  0.14852397  0.23195967  0.71660349     0.06060
C673        C  0.15493779  0.17055833  0.65593298    -0.20330
C674        C  0.19229918  0.19472461  0.64594303    -0.06900
C675        C  0.22590742  0.17345862  0.62229749     0.13970
C676        C  0.22008751  0.13136535  0.60982689    -0.20390
C677        C  0.18800493  0.10610825  0.62834418    -0.06910
C678        C  0.15369719  0.12617033  0.65017682     0.13960
C679        C  0.11704940  0.10115234  0.66930963    -0.23740
H680        H  0.12751719  0.18545695  0.67124197     0.15240
H681        H  0.24457927  0.11622309  0.58991221     0.15270
C682        C  0.27061144  0.19083018  0.61358532    -0.23690
H683        H  0.09463183  0.12172536  0.68804365     0.05490
H684        H  0.12976223  0.07677428  0.69172320     0.08710
H685        H  0.09823475  0.08568160  0.64304868     0.08710
H686        H  0.28526629  0.20315115  0.64398951     0.08690
H687        H  0.26980345  0.21462948  0.58735239     0.08690
H688        H  0.29326223  0.16603409  0.60183100     0.05470
C689        C  0.35969058  0.34091926  0.65783394    -0.20330
C690        C  0.38921284  0.31567350  0.68059344    -0.06900
C691        C  0.37572780  0.27655157  0.69778036     0.13970
C692        C  0.33197380  0.26641911  0.69714411    -0.20390
C693        C  0.30176946  0.29435099  0.67932840    -0.06910
C694        C  0.31573261  0.33078221  0.65737847     0.13960
C695        C  0.28404998  0.36033313  0.63647830    -0.23740
H696        H  0.37017362  0.37104911  0.64481513     0.15240
H697        H  0.32102530  0.23765876  0.71280922     0.15270
C698        C  0.40644971  0.24665264  0.71974074    -0.23690
H699        H  0.30040581  0.38796576  0.62154129     0.05490
H700        H  0.26094131  0.37228847  0.66125610     0.08710
H701        H  0.26608673  0.34326988  0.61056220     0.08710
H702        H  0.39759258  0.24347997  0.75456784     0.08690
H703        H  0.44037016  0.25761477  0.71761828     0.08690
H704        H  0.40454806  0.21504035  0.70383678     0.05470
C705        C  0.14123318  0.24426378  0.84520691    -0.20330
C706        C  0.15292761  0.27808994  0.87287486    -0.06900
C707        C  0.17859388  0.31100433  0.85577826     0.13970
C708        C  0.19192323  0.30848045  0.81195587    -0.20390
C709        C  0.18444906  0.27175793  0.78643502    -0.06910
C710        C  0.16135694  0.23788339  0.80536775     0.13960
C711        C  0.16172444  0.19282133  0.78834381    -0.23740
H712        H  0.12039557  0.21926013  0.85708536     0.15240
H713        H  0.20944845  0.33484464  0.79814544     0.15270
C714        C  0.19337990  0.34777017  0.88339833    -0.23690
H715        H  0.16943234  0.17083264  0.81529835     0.05490
H716        H  0.18699666  0.18715440  0.76353478     0.08710
H717        H  0.12953454  0.18427614  0.77526601     0.08710
H718        H  0.20983722  0.33599586  0.91296025     0.08690
H719        H  0.16558103  0.36779043  0.89277610     0.08690
H720        H  0.21643858  0.36826178  0.86557386     0.05470
C721        C  0.15754973  0.67426935  0.67404428    -0.20330
C722        C  0.19838146  0.69221409  0.68033533    -0.06900
C723        C  0.22398277  0.70286120  0.64382460     0.13970
C724        C  0.20665264  0.69826112  0.60203304    -0.20390
C725        C  0.16415754  0.68453507  0.59607701    -0.06910
C726        C  0.13995556  0.67052558  0.63222734     0.13960
C727        C  0.09418255  0.65530130  0.62712209    -0.23740
H728        H  0.13818774  0.66618132  0.70216102     0.15240
H729        H  0.22461116  0.70968330  0.57419465     0.15270
C730        C  0.26786820  0.72293053  0.64874455    -0.23690
H731        H  0.07972407  0.64629631  0.65880504     0.05490
H732        H  0.09344127  0.62706828  0.60545507     0.08710
H733        H  0.07401219  0.68067630  0.61288880     0.08710
H734        H  0.29031752  0.70051969  0.66451058     0.08690
H735        H  0.26541437  0.75228841  0.66866684     0.08690
H736        H  0.28203235  0.73155028  0.61680763     0.05470
C737        C  0.18052453  0.80629292  0.84174854    -0.20330
C738        C  0.18608670  0.80177882  0.79665785    -0.06900
C739        C  0.18274649  0.83815161  0.76996712     0.13970
C740        C  0.17900017  0.87825277  0.78964553    -0.20390
C741        C  0.17950669  0.88284305  0.83491687    -0.06910
C742        C  0.17782691  0.84636234  0.86127382     0.13960
C743        C  0.17769838  0.84879007  0.91025919    -0.23740
H744        H  0.18242686  0.77854685  0.86225662     0.15240
H745        H  0.18064131  0.90642943  0.76976794     0.15270
C746        C  0.18743842  0.83585156  0.72118152    -0.23690
H747        H  0.14967031  0.83089913  0.92308583     0.05490
H748        H  0.17534389  0.88171518  0.92273025     0.08710
H749        H  0.20776936  0.83453750  0.92306039     0.08710
H750        H  0.15983610  0.81843823  0.70682855     0.08690
H751        H  0.21812660  0.82001613  0.71224992     0.08690
H752        H  0.18770264  0.86781924  0.70633815     0.05470
C753        C  0.31352970  0.65873848  0.81238707    -0.20330
C754        C  0.30825477  0.69961641  0.79586631    -0.06900
C755        C  0.34490385  0.72411684  0.78527460     0.13970
C756        C  0.38581001  0.70544071  0.78728449    -0.20390
C757        C  0.39048594  0.66281232  0.79874581    -0.06910
C758        C  0.35431265  0.63987353  0.81373541     0.13960
C759        C  0.35805202  0.59410248  0.82686100    -0.23740
H760        H  0.28522116  0.64022940  0.82047144     0.15240
H761        H  0.41361564  0.72259672  0.77526631     0.15270
C762        C  0.34067604  0.76844532  0.76792580    -0.23690
H763        H  0.32649528  0.58078635  0.83702686     0.05490
H764        H  0.38062378  0.59135964  0.85463052     0.08710
H765        H  0.37019870  0.57476548  0.79916348     0.08710
H766        H  0.32526473  0.78912696  0.79273897     0.08690
H767        H  0.32080621  0.76818905  0.73794260     0.08690
H768        H  0.37253419  0.78239302  0.75979667     0.05470
C769        C  0.63717224  0.22144456  0.68737211    -0.20330
C770        C  0.67353235  0.19497517  0.68632172    -0.06900
C771        C  0.66830751  0.15172096  0.67529935     0.13970
C772        C  0.62663579  0.13495932  0.67164309    -0.20390
C773        C  0.59029937  0.16036707  0.67908035    -0.06910
C774        C  0.59547128  0.20445169  0.68425877     0.13960
C775        C  0.55692239  0.23288933  0.68984620    -0.23740
H776        H  0.64113139  0.25475619  0.69509754     0.15240
H777        H  0.62259358  0.10104791  0.66750408     0.15270
C778        C  0.70591357  0.12209048  0.66952196    -0.23690
H779        H  0.56651920  0.26663191  0.69340526     0.05490
H780        H  0.53844487  0.22378817  0.71927610     0.08710
H781        H  0.53576037  0.22993854  0.66091572     0.08710
H782        H  0.70488362  0.09731264  0.69495716     0.08690
H783        H  0.73738237  0.13865607  0.67139239     0.08690
H784        H  0.70397633  0.10662802  0.63705886     0.05470
C785        C  0.81806531  0.17656630  0.81274389    -0.20330
C786        C  0.77714354  0.19486516  0.80935641    -0.06900
C787        C  0.75332559  0.20399196  0.84758895     0.13970
C788        C  0.77296624  0.19862762  0.88818924    -0.20390
C789        C  0.81595727  0.18554186  0.89126365    -0.06910
C790        C  0.83788833  0.17193082  0.85336219     0.13960
C791        C  0.88382498  0.15666105  0.85540056    -0.23740
H792        H  0.83596258  0.16931850  0.78333067     0.15240
H793        H  0.75641796  0.20954970  0.91724370     0.15270
C794        C  0.70879511  0.22300281  0.84694108    -0.23690
H795        H  0.89626659  0.14761251  0.82276182     0.05490
H796        H  0.88571576  0.12847019  0.87666529     0.08710
H797        H  0.90498751  0.18199131  0.86867620     0.08710
H798        H  0.68619725  0.20193745  0.86464382     0.08690
H799        H  0.69597810  0.22756713  0.81376647     0.08690
H800        H  0.70936836  0.25440654  0.86339260     0.05470
C801        C  0.80170972  0.31579091  0.66069876    -0.20330
C802        C  0.78154387  0.31100630  0.70118183    -0.06900
C803        C  0.76975112  0.34739255  0.72544968     0.13970
C804        C  0.77469525  0.38753346  0.70673137    -0.20390
C805        C  0.79010025  0.39191952  0.66406997    -0.06910
C806        C  0.80607769  0.35590275  0.64176738     0.13960
C807        C  0.82390828  0.35926162  0.59630046    -0.23740
H808        H  0.81102636  0.28776842  0.64246235     0.15240
H809        H  0.76191026  0.41513492  0.72342537     0.15270
C810        C  0.74828758  0.34384287  0.76930190    -0.23690
H811        H  0.83447572  0.32800801  0.58343409     0.05490
H812        H  0.85218951  0.38080706  0.59631583     0.08710
H813        H  0.79897030  0.37184326  0.57403457     0.08710
H814        H  0.77048940  0.32864398  0.79268525     0.08690
H815        H  0.71841132  0.32463919  0.76649412     0.08690
H816        H  0.73940918  0.37537054  0.78277325     0.05470
C817        C  0.69114161  0.17021432  0.16479974    -0.20330
C818        C  0.68509325  0.20751447  0.18984043    -0.06900
C819        C  0.66320898  0.24179246  0.17045813     0.13970
C820        C  0.64240943  0.23536690  0.13102920    -0.20390
C821        C  0.65248308  0.20069184  0.10378331    -0.06910
C822        C  0.67726950  0.16736204  0.12115847     0.13960
C823        C  0.69045349  0.12968357  0.09403660    -0.23740
H824        H  0.70776743  0.14351669  0.17887062     0.15240
H825        H  0.62227496  0.26079295  0.11909920     0.15270
C826        C  0.66539730  0.28708168  0.18666692    -0.23690
H827        H  0.71302087  0.10884296  0.11189685     0.05490
H828        H  0.70693452  0.14041380  0.06398426     0.08710
H829        H  0.66186692  0.11035244  0.08550843     0.08710
H830        H  0.69060585  0.29216534  0.21159621     0.08690
H831        H  0.63348227  0.29711825  0.19936534     0.08690
H832        H  0.67433724  0.30823843  0.15934424     0.05470
C833        C  0.85099711  0.12353515  0.31223679    -0.20330
C834        C  0.88405157  0.15220486  0.30183690    -0.06900
C835        C  0.87428288  0.19512659  0.29483376     0.13970
C836        C  0.83110939  0.20772930  0.29447941    -0.20390
C837        C  0.79791236  0.17807596  0.30032324    -0.06910
C838        C  0.80773333  0.13594534  0.31080668     0.13960
C839        C  0.77258509  0.10380080  0.31776395    -0.23740
H840        H  0.85880050  0.09040628  0.31679334     0.15240
H841        H  0.82309146  0.24015481  0.28652815     0.15270
C842        C  0.90929136  0.22680617  0.28506434    -0.23690
H843        H  0.78588002  0.07208854  0.32541388     0.05490
H844        H  0.75269678  0.10084151  0.28791763     0.08710
H845        H  0.75178023  0.11404692  0.34526550     0.08710
H846        H  0.92652123  0.21777638  0.25474511     0.08690
H847        H  0.93261759  0.22775422  0.31237541     0.08690
H848        H  0.89608212  0.25916911  0.28074692     0.05470
C849        C  0.71619207  0.34686360  0.37086169    -0.20330
C850        C  0.68563416  0.37246937  0.35066707    -0.06900
C851        C  0.65238518  0.35295932  0.32694219     0.13970
C852        C  0.65357893  0.30867565  0.32048141    -0.20390
C853        C  0.69004377  0.28402482  0.33221620    -0.06910
C854        C  0.72170386  0.30443784  0.35923440     0.13960
C855        C  0.76388989  0.28531070  0.37386344    -0.23740
H856        H  0.73970881  0.36192540  0.39198314     0.15240
H857        H  0.62689569  0.29432686  0.30344792     0.15270
C858        C  0.61701616  0.37865684  0.30667644    -0.23690
H859        H  0.78533513  0.30878916  0.39002877     0.05490
H860        H  0.78257720  0.27350532  0.34556830     0.08710
H861        H  0.75802237  0.26065132  0.39861565     0.08710
H862        H  0.63109042  0.40275026  0.28466854     0.08690
H863        H  0.59786254  0.39466920  0.33240458     0.08690
H864        H  0.59472197  0.35851467  0.28731343     0.05470
C865        C  0.25247803  0.27281246  0.13506616    -0.20330
C866        C  0.27769807  0.28164391  0.17186188    -0.06900
C867        C  0.31877070  0.30013065  0.16662185     0.13970
C868        C  0.33573789  0.30465505  0.12458844    -0.20390
C869        C  0.31294532  0.28990302  0.08811605    -0.06910
C870        C  0.26987337  0.27641241  0.09309326     0.13960
C871        C  0.24356429  0.26295207  0.05426274    -0.23740
H872        H  0.22052145  0.25957160  0.13928689     0.15240
H873        H  0.36882883  0.31498778  0.12061983     0.15270
C874        C  0.34538152  0.31328520  0.20535328    -0.23690
H875        H  0.21037670  0.25355241  0.06375063     0.05490
H876        H  0.25888684  0.23552787  0.03766131     0.08710
H877        H  0.24125288  0.28966463  0.03109888     0.08710
H878        H  0.35302581  0.28539086  0.22563692     0.08690
H879        H  0.32719117  0.33670039  0.22520604     0.08690
H880        H  0.37629683  0.32808067  0.19533869     0.05470
C881        C  0.28300003  0.13552398  0.25904794    -0.20330
C882        C  0.28444986  0.17114578  0.28666098    -0.06900
C883        C  0.29599716  0.16583810  0.33074087     0.13970
C884        C  0.30034841  0.12479621  0.34723628    -0.20390
C885        C  0.29301897  0.08910314  0.32083158    -0.06910
C886        C  0.28675055  0.09443602  0.27581755     0.13960
C887        C  0.28091410  0.05668068  0.24623076    -0.23740
H888        H  0.27490756  0.13961227  0.22507402     0.15240
H889        H  0.30515782  0.12067524  0.38187110     0.15270
C890        C  0.30195841  0.20266351  0.36158121    -0.23690
H891        H  0.27648708  0.06629090  0.21185564     0.05490
H892        H  0.25216108  0.03820547  0.25625297     0.08710
H893        H  0.30983782  0.03613337  0.24801782     0.08710
H894        H  0.27720326  0.20130049  0.38764447     0.08690
H895        H  0.29960379  0.23372543  0.34517201     0.08690
H896        H  0.33438797  0.20087466  0.37660324     0.05470
C897        C  0.13057895  0.25267196  0.28207009    -0.20330
C898        C  0.16685164  0.27848253  0.28874465    -0.06900
C899        C  0.16142640  0.32000887  0.30506533     0.13970
C900        C  0.11968119  0.33647033  0.30929696    -0.20390
C901        C  0.08369105  0.31267777  0.29619817    -0.06910
C902        C  0.08887422  0.26952935  0.28527066     0.13960
C903        C  0.05051188  0.24239642  0.27386520    -0.23740
H904        H  0.13494772  0.22047801  0.27046814     0.15240
H905        H  0.11551737  0.36961479  0.31770311     0.15270
C906        C  0.19963623  0.34755937  0.31597400    -0.23690
H907        H  0.06010055  0.20928042  0.26631280     0.05490
H908        H  0.03375815  0.25530162  0.24500696     0.08710
H909        H  0.02775513  0.24183282  0.30175205     0.08710
H910        H  0.21929923  0.35342748  0.28647363     0.08690
H911        H  0.21981097  0.33163047  0.34071621     0.08690
H912        H  0.18952637  0.37876209  0.32934813     0.05470
C913        C  0.71605404  0.63308819  0.09992417    -0.20330
C914        C  0.68743573  0.60650301  0.12172333    -0.06900
C915        C  0.65548434  0.62476525  0.14808262     0.13970
C916        C  0.65630985  0.66889165  0.15557502    -0.20390
C917        C  0.69131132  0.69477660  0.14170173    -0.06910
C918        C  0.72100705  0.67570944  0.11136670     0.13960
C919        C  0.76035094  0.69671403  0.09195532    -0.23740
H920        H  0.73855541  0.61871755  0.07718904     0.15240
H921        H  0.63056575  0.68194106  0.17495169     0.15270
C922        C  0.62198641  0.59775499  0.16999531    -0.23690
H923        H  0.77964340  0.67485561  0.07125766     0.05490
H924        H  0.78276136  0.70728812  0.11793191     0.08710
H925        H  0.75047633  0.72260974  0.06999011     0.08710
H926        H  0.63789849  0.57380286  0.19075706     0.08690
H927        H  0.60200237  0.58144362  0.14513597     0.08690
H928        H  0.60020857  0.61694545  0.19092853     0.05470
C929        C  0.83479687  0.76788951  0.18430265    -0.20330
C930        C  0.80214701  0.79754215  0.17659461    -0.06900
C931        C  0.81273995  0.83939683  0.16554909     0.13970
C932        C  0.85608937  0.85174764  0.16603028    -0.20390
C933        C  0.88835313  0.82330256  0.17882932    -0.06910
C934        C  0.87798413  0.78048164  0.18603873     0.13960
C935        C  0.91218483  0.74891415  0.19817655    -0.23740
H936        H  0.82613223  0.73555005  0.19215813     0.15240
H937        H  0.86430833  0.88475131  0.16108457     0.15270
C938        C  0.77818352  0.87137945  0.15603683    -0.23690
H939        H  0.89855249  0.71664369  0.20229750     0.05490
H940        H  0.92770766  0.75836443  0.22924332     0.08710
H941        H  0.93699701  0.74751080  0.17217143     0.08710
H942        H  0.75674902  0.87505825  0.18475541     0.08690
H943        H  0.75881810  0.86049086  0.12777667     0.08690
H944        H  0.79204198  0.90288416  0.14826343     0.05470
C945        C  0.69457003  0.80699229  0.31061056    -0.20330
C946        C  0.68713650  0.76998652  0.28548534    -0.06900
C947        C  0.66384303  0.73644642  0.30476946     0.13970
C948        C  0.64366709  0.74331275  0.34457611    -0.20390
C949        C  0.65491874  0.77771232  0.37176664    -0.06910
C950        C  0.68085303  0.81024634  0.35428770     0.13960
C951        C  0.69553716  0.84743487  0.38136254    -0.23740
H952        H  0.71219878  0.83315763  0.29655017     0.15240
H953        H  0.62270752  0.71850228  0.35664509     0.15270
C954        C  0.66367754  0.69134338  0.28789747    -0.23690
H955        H  0.71901741  0.86739491  0.36346017     0.05490
H956        H  0.71148577  0.83613330  0.41140332     0.08710
H957        H  0.66778688  0.86786320  0.38988465     0.08710
H958        H  0.68858879  0.68540698  0.26278872     0.08690
H959        H  0.63128466  0.68302678  0.27518850     0.08690
H960        H  0.67150247  0.66939902  0.31485581     0.05470
C961        C  0.27289801  0.80025464  0.12933040    -0.20330
C962        C  0.29344566  0.78742296  0.16806957    -0.06900
C963        C  0.32412427  0.81648490  0.18596325     0.13970
C964        C  0.32214497  0.85963915  0.17448584    -0.20390
C965        C  0.29544383  0.87285264  0.14063663    -0.06910
C966        C  0.27487574  0.84186543  0.11471497     0.13960
C967        C  0.25264669  0.85210152  0.07237199    -0.23740
H968        H  0.25394064  0.77913228  0.10980557     0.15240
H969        H  0.34153127  0.88278377  0.19177738     0.15270
C970        C  0.36201359  0.80298926  0.21297690    -0.23690
H971        H  0.26506294  0.83094048  0.04626814     0.05490
H972        H  0.25852385  0.88506390  0.06164375     0.08710
H973        H  0.21739312  0.84702371  0.07579594     0.08710
H974        H  0.36604256  0.76809619  0.21309727     0.08690
H975        H  0.35882715  0.81553766  0.24663742     0.08690
H976        H  0.39207990  0.81590898  0.19856746     0.05470
C977        C  0.10362431  0.68926992  0.18377038    -0.20330
C978        C  0.09631828  0.64580673  0.17901317    -0.06900
C979        C  0.13129797  0.61829240  0.17054899     0.13970
C980        C  0.17341376  0.63431316  0.17199404    -0.20390
C981        C  0.18083358  0.67707102  0.18156178    -0.06910
C982        C  0.14563205  0.70533237  0.18537395     0.13960
C983        C  0.15220881  0.75178344  0.19515540    -0.23740
H984        H  0.07662532  0.70994862  0.19083667     0.15240
H985        H  0.20058644  0.61299020  0.16892319     0.15270
C986        C  0.12428751  0.57144659  0.16389385    -0.23690
H987        H  0.12110809  0.76879183  0.19877336     0.05490
H988        H  0.17029735  0.76684863  0.16820817     0.08710
H989        H  0.17044397  0.75574117  0.22595194     0.08710
H990        H  0.10307320  0.56615652  0.13534652     0.08690
H991        H  0.10894657  0.55750470  0.19313811     0.08690
H992        H  0.15508234  0.55451220  0.15790608     0.05470
C993        C  0.32730651  0.68099014  0.30657719    -0.20330
C994        C  0.28463788  0.69427400  0.30165213    -0.06900
C995        C  0.25873134  0.70097498  0.33892342     0.13970
C996        C  0.27745694  0.69754270  0.38035903    -0.20390
C997        C  0.32134217  0.68794379  0.38510985    -0.06910
C998        C  0.34604804  0.67774510  0.34773077     0.13960
C999        C  0.39337691  0.66718862  0.34967121    -0.23740
H1000       H  0.34691856  0.67539332  0.27789227     0.15240
H1001       H  0.25894387  0.70638071  0.40891869     0.15270
C1002       C  0.21251625  0.71497112  0.33513733    -0.23690
H1003       H  0.39902512  0.63608818  0.33363500     0.05490
H1004       H  0.40589283  0.66510949  0.38324327     0.08710
H1005       H  0.41214237  0.69181383  0.33226432     0.08710
H1006       H  0.19320431  0.69008196  0.31861943     0.08690
H1007       H  0.21072438  0.74473865  0.31623034     0.08690
H1008       H  0.19775879  0.72087201  0.36754172     0.05470
C1009       C  0.75008838  0.76633976  0.63705550    -0.20330
C1010       C  0.77696994  0.77585679  0.67243057    -0.06900
C1011       C  0.81763675  0.79445611  0.66509823     0.13970
C1012       C  0.83227255  0.79940674  0.62234099    -0.20390
C1013       C  0.80766122  0.78488626  0.58704358    -0.06910
C1014       C  0.76523939  0.77030631  0.59422930     0.13960
C1015       C  0.73709875  0.75684712  0.55673271    -0.23740
H1016       H  0.71823933  0.75349898  0.64302386     0.15240
H1017       H  0.86496577  0.81022375  0.61669182     0.15270
C1018       C  0.84618651  0.80766331  0.70238852    -0.23690
H1019       H  0.70467011  0.74670399  0.56792185     0.05490
H1020       H  0.75200334  0.72993082  0.53890472     0.08710
H1021       H  0.73300532  0.78380066  0.53411893     0.08710
H1022       H  0.85458112  0.77969508  0.72229792     0.08690
H1023       H  0.82913848  0.83123953  0.72306641     0.08690
H1024       H  0.87667228  0.82223431  0.69082148     0.05470
C1025       C  0.81344276  0.65764819  0.79046792    -0.20330
C1026       C  0.77938947  0.68334607  0.80684276    -0.06900
C1027       C  0.75471896  0.66655080  0.84229499     0.13970
C1028       C  0.76668152  0.62800016  0.86039144    -0.20390
C1029       C  0.79272955  0.59959503  0.83740083    -0.06910
C1030       C  0.81815774  0.61498183  0.80318110     0.13960
C1031       C  0.84877180  0.58619385  0.77929172    -0.23740
H1032       H  0.83475870  0.66941334  0.76554261     0.15240
H1033       H  0.74862144  0.61617571  0.88806013     0.15270
C1034       C  0.71121085  0.68268078  0.85737490    -0.23690
H1035       H  0.86599510  0.60307307  0.75287770     0.05490
H1036       H  0.83076489  0.55930798  0.76456660     0.08710
H1037       H  0.87308464  0.57371087  0.80228534     0.08710
H1038       H  0.69163629  0.69376357  0.82968698     0.08690
H1039       H  0.71510008  0.70720352  0.88303504     0.08690
H1040       H  0.69151506  0.65709504  0.87218811     0.05470
C1041       C  0.66522586  0.83280518  0.81084107    -0.20330
C1042       C  0.67286813  0.79331216  0.79155710    -0.06900
C1043       C  0.63772975  0.76734690  0.77881707     0.13970
C1044       C  0.59592916  0.78318009  0.78236496    -0.20390
C1045       C  0.58873253  0.82483218  0.79608950    -0.06910
C1046       C  0.62328736  0.84915194  0.81292852     0.13960
C1047       C  0.61648589  0.89382063  0.82906896    -0.23740
H1048       H  0.69233103  0.85224825  0.82073838     0.15240
H1049       H  0.56937025  0.76491961  0.76902203     0.15270
C1050       C  0.64308039  0.72441640  0.75759079    -0.23690
H1051       H  0.64702340  0.90845033  0.84050441     0.05490
H1052       H  0.59344030  0.89373183  0.85669906     0.08710
H1053       H  0.60345980  0.91377240  0.80258378     0.08710
H1054       H  0.62570889  0.70024986  0.77698938     0.08690
H1055       H  0.67706269  0.71429626  0.75459039     0.08690
H1056       H  0.62915731  0.72502044  0.72436205     0.05470
loop_ 
_geom_bond_atom_site_label_1 
_geom_bond_atom_site_label_2 
_geom_bond_distance 
_geom_bond_site_symmetry_2 
_ccdc_geom_bond_type 
C1            C2   1.394       .  A
C1            C6   1.393       .  A
C1         C1042   1.468       .  S
C2            C3   1.409       .  A
C2            H7   1.072       .  S
C3            C4   1.420       .  A
C3         C1026   1.520       .  S
C4            C5   1.409       .  A
C4            H8   1.079       .  S
C5            C6   1.391       .  A
C5         C1010   1.474       .  S
C6            H9   1.084       .  S
C10          C11   1.419       .  A
C10          C15   1.419       .  A
C10         C962   1.526       .  S
C11          C12   1.408       .  A
C11          H16   1.075       .  S
C12          C13   1.392       .  A
C12         C994   1.479       .  S
C13          C14   1.394       .  A
C13          H17   1.084       .  S
C14          C15   1.396       .  A
C14         C981   1.473       .  S
C15          H18   1.071       .  S
C19          C20   1.395       .  A
C19          C24   1.393       .  A
C19         C930   1.467       .  S
C20          C21   1.399       .  A
C20          H25   1.083       .  S
C21          C22   1.413       .  A
C21         C946   1.497       .  S
C22          C23   1.417       .  A
C22          H26   1.074       .  S
C23          C24   1.405       .  A
C23         C917   1.530       .  S
C24          H27   1.070       .  S
C28          C29   1.401       .  A
C28          C33   1.404       .  A
C28         C898   1.478       .  S
C29          C30   1.406       .  A
C29          H34   1.084       .  S
C30          C31   1.402       .  A
C30         C882   1.483       .  S
C31          C32   1.405       .  A
C31          H35   1.084       .  S
C32          C33   1.399       .  A
C32         C866   1.478       .  S
C33          H36   1.084       .  S
C37          C38   1.400       .  A
C37          C42   1.412       .  A
C37         C818   1.497       .  S
C38          C39   1.397       .  A
C38          H43   1.083       .  S
C39          C40   1.394       .  A
C39         C837   1.467       .  S
C40          C41   1.403       .  A
C40          H44   1.072       .  S
C41          C42   1.414       .  A
C41         C853   1.524       .  S
C42          H45   1.074       .  S
C46          C47   1.400       .  A
C46          C51   1.405       .  A
C46         C802   1.480       .  S
C47          C48   1.403       .  A
C47          H52   1.084       .  S
C48          C49   1.399       .  A
C48         C786   1.476       .  S
C49          C50   1.406       .  A
C49          H53   1.084       .  S
C50          C51   1.404       .  A
C50         C770   1.483       .  S
C51          H54   1.084       .  S
C55          C56   1.397       .  A
C55          C60   1.404       .  A
C55         C722   1.477       .  S
C56          C57   1.400       .  A
C56          H61   1.084       .  S
C57          C58   1.399       .  A
C57         C754   1.475       .  S
C58          C59   1.408       .  A
C58          H62   1.084       .  S
C59          C60   1.404       .  A
C59         C738   1.487       .  S
C60          H63   1.081       .  S
O64         Mg66   2.069       .  S
O64         Mg72   2.118   1_554  S
O64          C99   1.238       .  S
C65         H104   1.081       .  S
C65          O78   1.242   1_655  S
C65         O102   1.276       .  A
Mg66         O95   2.099   1_545  S
Mg66        O110   2.267   1_544  S
Mg66        O106   2.168   1_545  S
Mg66         O77   2.326       .  S
O67        Mg109   2.126   1_455  S
O67         Mg92   2.073       .  S
O67          C88   1.237       .  S
O68          C99   1.271       .  A
O68         Mg92   2.307       .  S
C69         C282   1.477   1_455  S
C69          O71   1.277       .  A
C69          O83   1.269   1_455  A
O70          C98   1.279   1_545  A
O70         Mg72   2.321       .  S
O71        Mg103   2.319       .  S
Mg72         O78   2.168       .  S
Mg72         O86   2.326       .  S
Mg72         O74   2.370       .  S
C73         C123   1.474       .  S
C73         O111   1.253       .  A
C73          O79   1.278       .  A
O74          C81   1.278       .  A
H75          C88   1.081       .  S
C76         H101   1.081       .  S
C76          O90   1.242   1_565  S
C76          O91   1.279   1_655  A
O77         C100   1.274       .  A
O78         Mg92   2.113   1_556  S
O79        Mg109   2.387       .  S
C80         C432   1.491   1_554  S
C80          O93   1.282       .  A
C80          O85   1.270       .  A
C81         C114   1.472       .  S
C81         O108   1.258       .  A
Mg82         O89   2.094       .  S
Mg82         O90   2.110   1_455  S
Mg82         O83   2.270   1_445  S
Mg82         O84   2.313       .  S
Mg82        O111   2.177   1_455  S
O84          C88   1.271       .  A
O85         Mg92   2.270   1_655  S
O86         C105   1.277       .  A
O87         C107   1.278       .  A
O87        Mg103   2.395       .  S
O89        Mg103   2.120   1_545  S
O89         C100   1.238       .  S
O90        Mg109   2.207       .  S
O91        Mg103   2.331       .  S
Mg92        O108   2.165   1_554  S
O93        Mg109   2.356       .  S
H94          C99   1.081       .  S
O95        Mg103   2.173       .  S
O95          C98   1.244   1_554  S
H96          C98   1.081       .  S
H97         C100   1.081       .  S
O102       Mg109   2.307   1_556  S
C105        C507   1.480   1_545  S
C105        O110   1.268   1_545  A
O106        C107   1.255       .  A
C107        C132   1.476       .  S
C112        C113   1.407       .  A
C112        C117   1.418       .  A
C112        C706   1.494       .  S
C113        C114   1.379       .  A
C113        H118   1.084       .  S
C114        C115   1.405       .  A
C115        C116   1.401       .  A
C115        H119   1.085   1_556  S
C116        C117   1.414       .  A
C116        C369   1.477   1_556  S
C117        H120   1.080       .  S
C121        C122   1.402       .  A
C121        C126   1.408       .  A
C121        C834   1.465       .  S
C122        C123   1.385       .  A
C122        H127   1.085       .  S
C123        C124   1.412       .  A
C124        C125   1.406       .  A
C124        H128   1.084   1_655  S
C125        C126   1.405       .  A
C125        C230   1.479   1_655  S
C126        H129   1.083       .  S
C130        C131   1.404       .  A
C130        C135   1.413       .  A
C130        C965   1.480       .  S
C131        C132   1.385       .  A
C131        H136   1.085       .  S
C132        C133   1.413       .  A
C133        C134   1.407       .  A
C133        H137   1.085   1_565  S
C134        C135   1.413       .  A
C134        C455   1.487   1_565  S
C135        H138   1.083       .  S
O139       Mg141   2.092       .  S
O139       Mg147   2.125   1_655  S
O139        C174   1.238       .  S
C140        H179   1.081       .  S
C140        O153   1.242   1_455  S
C140        O177   1.279   1_455  A
Mg141       O170   2.114       .  S
Mg141       O185   2.265   1_655  S
Mg141       O181   2.182       .  S
Mg141       O152   2.307       .  S
O142       Mg184   2.118       .  S
O142       Mg167   2.086       .  S
O142        C163   1.239       .  S
O143        C174   1.273       .  A
O143       Mg167   2.326       .  S
C144        C582   1.491       .  S
C144        O146   1.280       .  A
C144        O158   1.270       .  A
O145        C173   1.277   1_455  A
O145       Mg147   2.318       .  S
O146       Mg178   2.347       .  S
Mg147       O153   2.202   1_455  S
Mg147       O161   2.338       .  S
Mg147       O149   2.389       .  S
C148        C189   1.476       .  S
C148        O186   1.257       .  A
C148        O154   1.280       .  A
O149        C156   1.276       .  A
H150        C163   1.081       .  S
C151        H176   1.081       .  S
C151        O165   1.243       .  S
C151        O166   1.278       .  A
O152        C175   1.271       .  A
O153       Mg167   2.103       .  S
O154       Mg184   2.397       .  S
C155        C423   1.484       .  S
C155        O168   1.278       .  A
C155        O160   1.269       .  A
C156        C198   1.474       .  S
C156        O183   1.252       .  A
Mg157       O164   2.073       .  S
Mg157       O165   2.105       .  S
Mg157       O158   2.278       .  S
Mg157       O159   2.319       .  S
Mg157       O186   2.167       .  S
O159        C163   1.274       .  A
O160       Mg167   2.273       .  S
O161        C180   1.279       .  A
O162        C182   1.280       .  A
O162       Mg178   2.383       .  S
O164       Mg178   2.125       .  S
O164        C175   1.237       .  S
O165       Mg184   2.174       .  S
O166       Mg178   2.314       .  S
Mg167       O183   2.176   1_655  S
O168       Mg184   2.333       .  S
H169        C174   1.081       .  S
O170       Mg178   2.188       .  S
O170        C173   1.241       .  S
H171        C173   1.081       .  S
H172        C175   1.081       .  S
O177       Mg184   2.331       .  S
C180        C264   1.482       .  S
C180        O185   1.269       .  A
O181        C182   1.256       .  A
C182        C207   1.476       .  S
C187        C188   1.408       .  A
C187        C192   1.411       .  A
C187        C850   1.490       .  S
C188        C189   1.385       .  A
C188        H193   1.085       .  S
C189        C190   1.412       .  A
C190        C191   1.405       .  A
C190        H194   1.085       .  S
C191        C192   1.414       .  A
C191        C555   1.482       .  S
C192        H195   1.082       .  S
C196        C197   1.402       .  A
C196        C201   1.408       .  A
C196        C978   1.468       .  S
C197        C198   1.386       .  A
C197        H202   1.085       .  S
C198        C199   1.412   1_455  A
C199        C200   1.406       .  A
C199        H203   1.084       .  S
C200        C201   1.407   1_655  A
C200        C405   1.479       .  S
C201        H204   1.084       .  S
C205        C206   1.403       .  A
C205        C210   1.415       .  A
C205       C1013   1.471       .  S
C206        C207   1.385       .  A
C206        H211   1.085       .  S
C207        C208   1.410       .  A
C208        C209   1.408       .  A
C208        H212   1.084       .  S
C209        C210   1.410       .  A
C209        C255   1.488       .  S
C210        H213   1.083       .  S
O214       Mg216   2.084       .  S
O214       Mg222   2.129   1_455  S
O214        C249   1.237       .  S
C215        H254   1.081       .  S
C215        O228   1.241       .  S
C215        O252   1.277   1_565  A
Mg216       O245   2.108       .  S
Mg216       O260   2.264   1_455  S
Mg216       O256   2.180       .  S
Mg216       O227   2.317       .  S
O217       Mg259   2.127   1_565  S
O217       Mg242   2.092       .  S
O217        C238   1.238       .  S
O218        C249   1.272       .  A
O218       Mg242   2.316       .  S
C219        C648   1.480       .  S
C219        O221   1.279       .  A
C219        O233   1.266       .  A
O220        C248   1.277       .  A
O220       Mg222   2.316       .  S
O221       Mg253   2.335       .  S
Mg222       O228   2.201       .  S
Mg222       O236   2.348       .  S
Mg222       O224   2.386       .  S
C223        C273   1.475       .  S
C223        O261   1.254       .  A
C223        O229   1.277       .  A
O224        C231   1.277       .  A
H225        C238   1.081       .  S
C226        H251   1.081       .  S
C226        O240   1.243   1_545  S
C226        O241   1.279   1_545  A
O227        C250   1.272       .  A
O228       Mg242   2.110   1_655  S
O229       Mg259   2.389       .  S
C230        O243   1.278       .  A
C230        O235   1.269   1_455  A
C231        C284   1.473       .  S
C231        O258   1.253       .  A
Mg232       O239   2.093       .  S
Mg232       O240   2.097       .  S
Mg232       O233   2.261       .  S
Mg232       O234   2.322       .  S
Mg232       O261   2.181   1_565  S
O234        C238   1.274       .  A
O235       Mg242   2.267   1_645  S
O236        C255   1.280       .  A
O237        C257   1.280       .  A
O237       Mg253   2.396       .  S
O239       Mg253   2.118       .  S
O239        C250   1.237       .  S
O240       Mg259   2.184   1_565  S
O241       Mg253   2.329       .  S
Mg242       O258   2.178   1_455  S
O243       Mg259   2.327       .  S
H244        C249   1.081       .  S
O245       Mg253   2.179       .  S
O245        C248   1.242   1_455  S
H246        C248   1.081       .  S
H247        C250   1.081       .  S
O252       Mg259   2.323   1_655  S
C255        O260   1.269       .  A
O256        C257   1.255       .  A
C257        C266   1.476       .  S
C262        C263   1.412       .  A
C262        C267   1.405       .  A
C262        C725   1.472       .  S
C263        C264   1.407       .  A
C263        H268   1.083       .  S
C264        C265   1.406       .  A
C265        C266   1.410       .  A
C265        H269   1.085       .  S
C266        C267   1.387       .  A
C267        H270   1.085       .  S
C271        C272   1.404       .  A
C271        C276   1.414       .  A
C271        C885   1.475       .  S
C272        C273   1.387       .  A
C272        H277   1.085       .  S
C273        C274   1.410   1_545  A
C274        C275   1.405       .  A
C274        H278   1.085       .  S
C275        C276   1.412   1_565  A
C275        C605   1.488       .  S
C276        H279   1.083       .  S
C280        C281   1.408       .  A
C280        C285   1.403       .  A
C280        C933   1.467       .  S
C281        C282   1.405       .  A
C281        H286   1.084       .  S
C282        C283   1.404       .  A
C283        C284   1.411       .  A
C283        H287   1.085   1_655  S
C284        C285   1.386       .  A
C285        H288   1.085       .  S
O289       Mg291   2.072       .  S
O289       Mg297   2.126       .  S
O289        C324   1.237       .  S
C290        H329   1.081       .  S
C290        O303   1.242       .  S
C290        O327   1.279       .  A
Mg291       O320   2.112       .  S
Mg291       O335   2.275       .  S
Mg291       O331   2.164   1_556  S
Mg291       O302   2.310       .  S
O292       Mg334   2.119       .  S
O292       Mg317   2.098       .  S
O292        C313   1.239       .  S
O293        C324   1.271       .  A
O293       Mg317   2.311       .  S
C294        C414   1.481       .  S
C294        O296   1.277       .  A
C294        O308   1.268       .  A
O295        C323   1.276   1_556  A
O295       Mg297   2.307       .  S
O296       Mg328   2.326       .  S
Mg297       O303   2.207       .  S
Mg297       O311   2.359       .  S
Mg297       O299   2.385       .  S
C298        C357   1.481       .  S
C298        O336   1.253       .  A
C298        O304   1.278       .  A
O299        C306   1.278       .  A
H300        C313   1.081       .  S
C301        H326   1.081       .  S
C301        O315   1.243       .  S
C301        O316   1.279   1_556  A
O302        C325   1.272       .  A
O303       Mg317   2.112       .  S
O304       Mg334   2.406       .  S
C305        C573   1.479       .  S
C305        O318   1.278       .  A
C305        O310   1.270       .  A
C306        C339   1.477       .  S
C306        O333   1.255       .  A
Mg307       O314   2.068       .  S
Mg307       O315   2.091       .  S
Mg307       O308   2.276   1_556  S
Mg307       O309   2.333       .  S
Mg307       O336   2.162       .  S
O309        C313   1.276       .  A
O310       Mg317   2.274       .  S
O311        C330   1.283       .  A
O312        C332   1.277       .  A
O312       Mg328   2.366       .  S
O314       Mg328   2.110   1_556  S
O314        C325   1.239       .  S
O315       Mg334   2.176       .  S
O316       Mg328   2.325       .  S
Mg317       O333   2.184       .  S
O318       Mg334   2.323       .  S
H319        C324   1.081       .  S
O320       Mg328   2.170   1_556  S
O320        C323   1.242   1_556  S
H321        C323   1.081       .  S
H322        C325   1.081       .  S
O327       Mg334   2.331       .  S
C330        C498   1.493       .  S
C330        O335   1.270       .  A
O331        C332   1.258       .  A
C332        C348   1.471       .  S
C337        C338   1.406       .  A
C337        C342   1.408       .  A
C337        C690   1.468       .  S
C338        C339   1.387       .  A
C338        H343   1.085       .  S
C339        C340   1.410       .  A
C340        C341   1.406       .  A
C340        H344   1.084       .  S
C341        C342   1.402       .  A
C341        C519   1.476       .  S
C342        H345   1.084       .  S
C346        C347   1.407       .  A
C346        C351   1.420       .  A
C346        C821   1.497       .  S
C347        C348   1.379       .  A
C347        H352   1.084       .  S
C348        C349   1.404   1_554  A
C349        C350   1.400       .  A
C349        H353   1.085       .  S
C350        C351   1.417   1_556  A
C350        C444   1.479       .  S
C351        H354   1.080       .  S
C355        C356   1.408       .  A
C355        C360   1.414       .  A
C355       C1029   1.487       .  S
C356        C357   1.383       .  A
C356        H361   1.086       .  S
C357        C358   1.413       .  A
C358        C359   1.408       .  A
C358        H362   1.085       .  S
C359        C360   1.415       .  A
C359        C380   1.488       .  S
C360        H363   1.083       .  S
O364       Mg366   2.087       .  S
O364       Mg372   2.124       .  S
O364        C399   1.239       .  S
C365        H404   1.081       .  S
C365        O378   1.243   1_556  S
C365        O402   1.278       .  A
Mg366       O395   2.101       .  S
Mg366       O410   2.258       .  S
Mg366       O406   2.178   1_655  S
Mg366       O377   2.324       .  S
O367       Mg409   2.120   1_554  S
O367       Mg392   2.085       .  S
O367        C388   1.238       .  S
O368        C399   1.274       .  A
O368       Mg392   2.320       .  S
C369        O371   1.278       .  A
C369        O383   1.269   1_554  A
O370        C398   1.278   1_655  A
O370       Mg372   2.324       .  S
O371       Mg403   2.321       .  S
Mg372       O378   2.181       .  S
Mg372       O386   2.332       .  S
Mg372       O374   2.386       .  S
C373        C434   1.480       .  S
C373        O411   1.255       .  A
C373        O379   1.280       .  A
O374        C381   1.278       .  A
H375        C388   1.081       .  S
C376        H401   1.081       .  S
C376        O390   1.242       .  S
C376        O391   1.278   1_655  A
O377        C400   1.273       .  A
O378       Mg392   2.103       .  S
O379       Mg409   2.397       .  S
C380        O393   1.280       .  A
C380        O385   1.271       .  A
C381        C416   1.472       .  S
C381        O408   1.257       .  A
Mg382       O389   2.091       .  S
Mg382       O390   2.102   1_554  S
Mg382       O383   2.279   1_654  S
Mg382       O384   2.318       .  S
Mg382       O411   2.181   1_554  S
O384        C388   1.273       .  A
O385       Mg392   2.289   1_556  S
O386        C405   1.278       .  A
O387        C407   1.276       .  A
O387       Mg403   2.390       .  S
O389       Mg403   2.113   1_655  S
O389        C400   1.238       .  S
O390       Mg409   2.184       .  S
O391       Mg403   2.323   1_556  S
Mg392       O408   2.170       .  S
O393       Mg409   2.340       .  S
H394        C399   1.081       .  S
O395       Mg403   2.192   1_655  S
O395        C398   1.241   1_655  S
H396        C398   1.081       .  S
H397        C400   1.081       .  S
O402       Mg409   2.321       .  S
C405        O410   1.267       .  A
O406        C407   1.251       .  A
C407        C425   1.476       .  S
C412        C413   1.412       .  A
C412        C417   1.407       .  A
C412        C914   1.488       .  S
C413        C414   1.414       .  A
C413        H418   1.083       .  S
C414        C415   1.402       .  A
C415        C416   1.410       .  A
C415        H419   1.085       .  S
C416        C417   1.385       .  A
C417        H420   1.085       .  S
C421        C422   1.413       .  A
C421        C426   1.404       .  A
C421        C901   1.474       .  S
C422        C423   1.411   1_455  A
C422        H427   1.083       .  S
C423        C424   1.404       .  A
C424        C425   1.410   1_655  A
C424        H428   1.085       .  S
C425        C426   1.387       .  A
C426        H429   1.085       .  S
C430        C431   1.414       .  A
C430        C435   1.404       .  A
C430        C789   1.473       .  S
C431        C432   1.410       .  A
C431        H436   1.083       .  S
C432        C433   1.411       .  A
C433        C434   1.412       .  A
C433        H437   1.084       .  S
C434        C435   1.386       .  A
C435        H438   1.085       .  S
O439       Mg441   2.090       .  S
O439       Mg447   2.134   1_545  S
O439        C474   1.238       .  S
C440        H479   1.081       .  S
C440        O453   1.242       .  S
C440        O477   1.278   1_556  A
Mg441       O470   2.106       .  S
Mg441       O485   2.250   1_545  S
Mg441       O481   2.177       .  S
Mg441       O452   2.317       .  S
O442       Mg484   2.121   1_556  S
O442       Mg467   2.097       .  S
O442        C463   1.239       .  S
O443        C474   1.273       .  A
O443       Mg467   2.319       .  S
C444        O446   1.278       .  A
C444        O458   1.269       .  A
O445        C473   1.276       .  A
O445       Mg447   2.315       .  S
O446       Mg478   2.323       .  S
Mg447       O453   2.190       .  S
Mg447       O461   2.334       .  S
Mg447       O449   2.378       .  S
C448        C500   1.482       .  S
C448        O486   1.254       .  A
C448        O454   1.280       .  A
O449        C456   1.276       .  A
H450        C463   1.081       .  S
C451        H476   1.081       .  S
C451        O465   1.242       .  S
C451        O466   1.279   1_554  A
O452        C475   1.272       .  A
O453       Mg467   2.104   1_565  S
O454       Mg484   2.401       .  S
C455        O468   1.280       .  A
C455        O460   1.269   1_545  A
C456        C509   1.469       .  S
C456        O483   1.255       .  A
Mg457       O464   2.089       .  S
Mg457       O465   2.098   1_556  S
Mg457       O458   2.284       .  S
Mg457       O459   2.327       .  S
Mg457       O486   2.181   1_556  S
O459        C463   1.275       .  A
O460       Mg467   2.280   1_564  S
O461        C480   1.278       .  A
O462        C482   1.278       .  A
O462       Mg478   2.396       .  S
O464       Mg478   2.110       .  S
O464        C475   1.237       .  S
O465       Mg484   2.188       .  S
O466       Mg478   2.327       .  S
Mg467       O483   2.182   1_545  S
O468       Mg484   2.345       .  S
H469        C474   1.081       .  S
O470       Mg478   2.183       .  S
O470        C473   1.241   1_545  S
H471        C473   1.081       .  S
H472        C475   1.081       .  S
O477       Mg484   2.326   1_565  S
C480        C657   1.480       .  S
C480        O485   1.266       .  A
O481        C482   1.253       .  A
C482        C491   1.474       .  S
C487        C488   1.413       .  A
C487        C492   1.404       .  A
C487        C773   1.474       .  S
C488        C489   1.411       .  A
C488        H493   1.083       .  S
C489        C490   1.403       .  A
C489        C630   1.483       .  S
C490        C491   1.410       .  A
C490        H494   1.085       .  S
C491        C492   1.387       .  A
C492        H495   1.085       .  S
C496        C497   1.414       .  A
C496        C501   1.404       .  A
C496        C869   1.474       .  S
C497        C498   1.411   1_554  A
C497        H502   1.083       .  S
C498        C499   1.411       .  A
C499        C500   1.413   1_556  A
C499        H503   1.084       .  S
C500        C501   1.386       .  A
C501        H504   1.085       .  S
C505        C506   1.411       .  A
C505        C510   1.402       .  A
C505        C741   1.473       .  S
C506        C507   1.411       .  A
C506        H511   1.083       .  S
C507        C508   1.402       .  A
C508        C509   1.409       .  A
C508        H512   1.085   1_565  S
C509        C510   1.387       .  A
C510        H513   1.085       .  S
O514       Mg516   2.086       .  S
O514       Mg522   2.110       .  S
O514        C549   1.239       .  S
C515        H554   1.081       .  S
C515        O528   1.243       .  S
C515        O552   1.277       .  A
Mg516       O545   2.094       .  S
Mg516       O560   2.267       .  S
Mg516       O556   2.178       .  S
Mg516       O527   2.331       .  S
O517       Mg559   2.123       .  S
O517       Mg542   2.063       .  S
O517        C538   1.236       .  S
O518        C549   1.274       .  A
O518       Mg542   2.319       .  S
C519        O521   1.277       .  A
C519        O533   1.269       .  A
O520        C548   1.280       .  A
O520       Mg522   2.335       .  S
O521       Mg553   2.319       .  S
Mg522       O528   2.170       .  S
Mg522       O536   2.338       .  S
Mg522       O524   2.385       .  S
C523        C575   1.474       .  S
C523        O561   1.256       .  A
C523        O529   1.278       .  A
O524        C531   1.280       .  A
H525        C538   1.081       .  S
C526        H551   1.081       .  S
C526        O540   1.241       .  S
C526        O541   1.277       .  A
O527        C550   1.274       .  A
O528       Mg542   2.110       .  S
O529       Mg559   2.384       .  S
C530        C639   1.492       .  S
C530        O543   1.281       .  A
C530        O535   1.270       .  A
C531        C564   1.475       .  S
C531        O558   1.258       .  A
Mg532       O539   2.102       .  S
Mg532       O540   2.116       .  S
Mg532       O533   2.261       .  S
Mg532       O534   2.302       .  S
Mg532       O561   2.188       .  S
O534        C538   1.269       .  A
O535       Mg542   2.276       .  S
O536        C555   1.278       .  A
O537        C557   1.276       .  A
O537       Mg553   2.390       .  S
O539       Mg553   2.130       .  S
O539        C550   1.238       .  S
O540       Mg559   2.199       .  S
O541       Mg553   2.321       .  S
Mg542       O558   2.161       .  S
O543       Mg559   2.354       .  S
H544        C549   1.081       .  S
O545       Mg553   2.188       .  S
O545        C548   1.243       .  S
H546        C548   1.081       .  S
H547        C550   1.081       .  S
O552       Mg559   2.310       .  S
C555        O560   1.266       .  A
O556        C557   1.251       .  A
C557        C584   1.476       .  S
C562        C563   1.407       .  A
C562        C567   1.421       .  A
C562        C949   1.498       .  S
C563        C564   1.379       .  A
C563        H568   1.084       .  S
C564        C565   1.407       .  A
C565        C566   1.404       .  A
C565        H569   1.085       .  S
C566        C567   1.417       .  A
C566        C594   1.484       .  S
C567        H570   1.080       .  S
C571        C572   1.412       .  A
C571        C576   1.405       .  A
C571        C757   1.472       .  S
C572        C573   1.408       .  A
C572        H577   1.083       .  S
C573        C574   1.403       .  A
C574        C575   1.409       .  A
C574        H578   1.085       .  S
C575        C576   1.388       .  A
C576        H579   1.085       .  S
C580        C581   1.416       .  A
C580        C585   1.404       .  A
C580        C805   1.478       .  S
C581        C582   1.412       .  A
C581        H586   1.083       .  S
C582        C583   1.407       .  A
C583        C584   1.411       .  A
C583        H587   1.084       .  S
C584        C585   1.386       .  A
C585        H588   1.085       .  S
O589       Mg591   2.085       .  S
O589       Mg597   2.115   1_565  S
O589        C624   1.239       .  S
C590        H629   1.081       .  S
C590        O603   1.243   1_545  S
C590        O627   1.278   1_545  A
Mg591       O620   2.101       .  S
Mg591       O635   2.274   1_565  S
Mg591       O631   2.175       .  S
Mg591       O602   2.330       .  S
O592       Mg634   2.126       .  S
O592       Mg617   2.076       .  S
O592        C613   1.238       .  S
O593        C624   1.273       .  A
O593       Mg617   2.315       .  S
C594        O596   1.281       .  A
C594        O608   1.269       .  A
O595        C623   1.280   1_545  A
O595       Mg597   2.335       .  S
O596       Mg628   2.342       .  S
Mg597       O603   2.166   1_545  S
Mg597       O611   2.334       .  S
Mg597       O599   2.399       .  S
C598        C641   1.476       .  S
C598        O636   1.256       .  A
C598        O604   1.280       .  A
O599        C606   1.281       .  A
H600        C613   1.081       .  S
C601        H626   1.081       .  S
C601        O615   1.241       .  S
C601        O616   1.277       .  A
O602        C625   1.275       .  A
O603       Mg617   2.107       .  S
O604       Mg634   2.387       .  S
C605        O618   1.280       .  A
C605        O610   1.270       .  A
C606        C650   1.478       .  S
C606        O633   1.259       .  A
Mg607       O614   2.097       .  S
Mg607       O615   2.108       .  S
Mg607       O608   2.283       .  S
Mg607       O609   2.309       .  S
Mg607       O636   2.182       .  S
O609        C613   1.271       .  A
O610       Mg617   2.275       .  S
O611        C630   1.278       .  A
O612        C632   1.277       .  A
O612       Mg628   2.397       .  S
O614       Mg628   2.112       .  S
O614        C625   1.239       .  S
O615       Mg634   2.182       .  S
O616       Mg628   2.322       .  S
Mg617       O633   2.170   1_565  S
O618       Mg634   2.343       .  S
H619        C624   1.081       .  S
O620       Mg628   2.204       .  S
O620        C623   1.243       .  S
H621        C623   1.081       .  S
H622        C625   1.081       .  S
O627       Mg634   2.313       .  S
C630        O635   1.268       .  A
O631        C632   1.251       .  A
C632        C659   1.478       .  S
C637        C638   1.416       .  A
C637        C642   1.401       .  A
C637        C997   1.474       .  S
C638        C639   1.412       .  A
C638        H643   1.083       .  S
C639        C640   1.409       .  A
C640        C641   1.412       .  A
C640        H644   1.084       .  S
C641        C642   1.385       .  A
C642        H645   1.085       .  S
C646        C647   1.412       .  A
C646        C651   1.410       .  A
C646        C677   1.493       .  S
C647        C648   1.413   1_545  A
C647        H652   1.081       .  S
C648        C649   1.404       .  A
C649        C650   1.411   1_565  A
C649        H653   1.085       .  S
C650        C651   1.384       .  A
C651        H654   1.085       .  S
C655        C656   1.407       .  A
C655        C660   1.404       .  A
C655       C1045   1.467       .  S
C656        C657   1.404       .  A
C656        H661   1.083       .  S
C657        C658   1.410       .  A
C658        C659   1.413       .  A
C658        H662   1.084       .  S
C659        C660   1.385       .  A
C660        H663   1.085       .  S
C664        C665   1.400       .  A
C664        C669   1.411       .  A
C664        C709   1.494       .  S
C665        C666   1.398       .  A
C665        H670   1.084       .  S
C666        C667   1.394       .  A
C666        C693   1.468       .  S
C667        C668   1.401       .  A
C667        H671   1.074       .  S
C668        C669   1.412       .  A
C668        C674   1.518       .  S
C669        H672   1.075       .  S
C673        C674   1.422       .  A
C673        C678   1.412       .  A
C673        H680   1.079       .  S
C674        C675   1.436       .  A
C675        C676   1.393       .  A
C675        C682   1.516       .  S
C676        C677   1.398       .  A
C676        H681   1.085       .  S
C677        C678   1.407       .  A
C678        C679   1.505       .  S
C679        H683   1.111       .  S
C679        H684   1.110       .  S
C679        H685   1.108       .  S
C682        H686   1.109       .  S
C682        H687   1.107       .  S
C682        H688   1.111       .  S
C689        C690   1.406       .  A
C689        C694   1.401       .  A
C689        H696   1.084       .  S
C690        C691   1.410       .  A
C691        C692   1.395       .  A
C691        C698   1.507       .  S
C692        C693   1.403       .  A
C692        H697   1.085       .  S
C693        C694   1.405       .  A
C694        C695   1.505       .  S
C695        H699   1.111       .  S
C695        H700   1.110       .  S
C695        H701   1.110       .  S
C698        H702   1.111       .  S
C698        H703   1.110       .  S
C698        H704   1.110       .  S
C705        C706   1.409       .  A
C705        C710   1.388       .  A
C705        H712   1.085       .  S
C706        C707   1.412       .  A
C707        C708   1.411       .  A
C707        C714   1.506       .  S
C708        C709   1.415       .  A
C708        H713   1.083       .  S
C709        C710   1.415       .  A
C710        C711   1.513       .  S
C711        H715   1.112       .  S
C711        H716   1.107       .  S
C711        H717   1.110       .  S
C714        H718   1.110       .  S
C714        H719   1.107       .  S
C714        H720   1.111       .  S
C721        C722   1.401       .  A
C721        C726   1.402       .  A
C721        H728   1.084       .  S
C722        C723   1.417       .  A
C723        C724   1.401       .  A
C723        C730   1.509       .  S
C724        C725   1.400       .  A
C724        H729   1.084       .  S
C725        C726   1.414       .  A
C726        C727   1.508       .  S
C727        H731   1.111       .  S
C727        H732   1.110       .  S
C727        H733   1.111       .  S
C730        H734   1.109       .  S
C730        H735   1.110       .  S
C730        H736   1.111       .  S
C737        C738   1.404       .  A
C737        C742   1.400       .  A
C737        H744   1.085       .  S
C738        C739   1.420       .  A
C739        C740   1.405       .  A
C739        C746   1.508       .  S
C740        C741   1.399       .  A
C740        H745   1.084       .  S
C741        C742   1.414       .  A
C742        C743   1.508       .  S
C743        H747   1.110       .  S
C743        H748   1.108       .  S
C743        H749   1.111       .  S
C746        H750   1.108       .  S
C746        H751   1.110       .  S
C746        H752   1.111       .  S
C753        C754   1.400       .  A
C753        C758   1.401       .  A
C753        H760   1.084       .  S
C754        C755   1.414       .  A
C755        C756   1.403       .  A
C755        C762   1.508       .  S
C756        C757   1.402       .  A
C756        H761   1.084       .  S
C757        C758   1.414       .  A
C758        C759   1.508       .  S
C759        H763   1.111       .  S
C759        H764   1.110       .  S
C759        H765   1.111       .  S
C762        H766   1.109       .  S
C762        H767   1.110       .  S
C762        H768   1.111       .  S
C769        C770   1.406       .  A
C769        C774   1.404       .  A
C769        H776   1.084       .  S
C770        C771   1.414       .  A
C771        C772   1.401       .  A
C771        C778   1.507       .  S
C772        C773   1.403       .  A
C772        H777   1.085       .  S
C773        C774   1.409       .  A
C774        C775   1.506       .  S
C775        H779   1.111       .  S
C775        H780   1.110       .  S
C775        H781   1.110       .  S
C778        H782   1.111       .  S
C778        H783   1.109       .  S
C778        H784   1.110       .  S
C785        C786   1.401       .  A
C785        C790   1.402       .  A
C785        H792   1.084       .  S
C786        C787   1.416       .  A
C787        C788   1.402       .  A
C787        C794   1.508       .  S
C788        C789   1.401       .  A
C788        H793   1.084       .  S
C789        C790   1.414       .  A
C790        C791   1.508       .  S
C791        H795   1.111       .  S
C791        H796   1.110       .  S
C791        H797   1.110       .  S
C794        H798   1.111       .  S
C794        H799   1.106       .  S
C794        H800   1.110       .  S
C801        C802   1.402       .  A
C801        C806   1.404       .  A
C801        H808   1.084       .  S
C802        C803   1.414       .  A
C803        C804   1.404       .  A
C803        C810   1.508       .  S
C804        C805   1.403       .  A
C804        H809   1.084       .  S
C805        C806   1.414       .  A
C806        C807   1.507       .  S
C807        H811   1.111       .  S
C807        H812   1.110       .  S
C807        H813   1.110       .  S
C810        H814   1.109       .  S
C810        H815   1.111       .  S
C810        H816   1.111       .  S
C817        C818   1.416       .  A
C817        C822   1.413       .  A
C817        H824   1.082       .  S
C818        C819   1.415       .  A
C819        C820   1.388       .  A
C819        C826   1.513       .  S
C820        C821   1.410       .  A
C820        H825   1.085       .  S
C821        C822   1.413       .  A
C822        C823   1.505       .  S
C823        H827   1.111       .  S
C823        H828   1.110       .  S
C823        H829   1.107       .  S
C826        H830   1.107       .  S
C826        H831   1.110       .  S
C826        H832   1.112       .  S
C833        C834   1.405       .  A
C833        C838   1.401       .  A
C833        H840   1.084       .  S
C834        C835   1.408       .  A
C835        C836   1.399       .  A
C835        C842   1.507       .  S
C836        C837   1.404       .  A
C836        H841   1.084       .  S
C837        C838   1.405       .  A
C838        C839   1.505       .  S
C839        H843   1.111       .  S
C839        H844   1.111       .  S
C839        H845   1.110       .  S
C842        H846   1.110       .  S
C842        H847   1.110       .  S
C842        H848   1.111       .  S
C849        C850   1.397       .  A
C849        C854   1.395       .  A
C849        H856   1.085       .  S
C850        C851   1.404       .  A
C851        C852   1.412       .  A
C851        C858   1.505       .  S
C852        C853   1.423       .  A
C852        H857   1.079       .  S
C853        C854   1.437       .  A
C854        C855   1.514       .  S
C855        H859   1.111       .  S
C855        H860   1.108       .  S
C855        H861   1.107       .  S
C858        H862   1.110       .  S
C858        H863   1.109       .  S
C858        H864   1.111       .  S
C865        C866   1.404       .  A
C865        C870   1.404       .  A
C865        H872   1.084       .  S
C866        C867   1.411       .  A
C867        C868   1.403       .  A
C867        C874   1.507       .  S
C868        C869   1.404       .  A
C868        H873   1.084       .  S
C869        C870   1.411       .  A
C870        C871   1.507       .  S
C871        H875   1.111       .  S
C871        H876   1.110       .  S
C871        H877   1.110       .  S
C874        H878   1.109       .  S
C874        H879   1.110       .  S
C874        H880   1.111       .  S
C881        C882   1.406       .  A
C881        C886   1.405       .  A
C881        H888   1.084       .  S
C882        C883   1.414       .  A
C883        C884   1.402       .  A
C883        C890   1.507       .  S
C884        C885   1.403       .  A
C884        H889   1.085       .  S
C885        C886   1.410       .  A
C886        C887   1.506       .  S
C887        H891   1.111       .  S
C887        H892   1.110       .  S
C887        H893   1.110       .  S
C890        H894   1.110       .  S
C890        H895   1.109       .  S
C890        H896   1.110       .  S
C897        C898   1.404       .  A
C897        C902   1.404       .  A
C897        H904   1.084       .  S
C898        C899   1.411       .  A
C899        C900   1.403       .  A
C899        C906   1.507       .  S
C900        C901   1.404       .  A
C900        H905   1.084       .  S
C901        C902   1.411       .  A
C902        C903   1.507       .  S
C903        H907   1.111       .  S
C903        H908   1.110       .  S
C903        H909   1.110       .  S
C906        H910   1.109       .  S
C906        H911   1.110       .  S
C906        H912   1.111       .  S
C913        C914   1.395       .  A
C913        C918   1.397       .  A
C913        H920   1.085       .  S
C914        C915   1.402       .  A
C915        C916   1.411       .  A
C915        C922   1.505       .  S
C916        C917   1.425       .  A
C916        H921   1.077       .  S
C917        C918   1.440       .  A
C918        C919   1.513       .  S
C919        H923   1.111       .  S
C919        H924   1.110       .  S
C919        H925   1.108       .  S
C922        H926   1.110       .  S
C922        H927   1.109       .  S
C922        H928   1.111       .  S
C929        C930   1.403       .  A
C929        C934   1.399       .  A
C929        H936   1.084       .  S
C930        C931   1.405       .  A
C931        C932   1.401       .  A
C931        C938   1.505       .  S
C932        C933   1.405       .  A
C932        H937   1.084       .  S
C933        C934   1.409       .  A
C934        C935   1.507       .  S
C935        H939   1.111       .  S
C935        H940   1.110       .  S
C935        H941   1.110       .  S
C938        H942   1.110       .  S
C938        H943   1.110       .  S
C938        H944   1.111       .  S
C945        C946   1.416       .  A
C945        C950   1.412       .  A
C945        H952   1.083       .  S
C946        C947   1.415       .  A
C947        C948   1.390       .  A
C947        C954   1.513       .  S
C948        C949   1.410       .  A
C948        H953   1.085       .  S
C949        C950   1.413       .  A
C950        C951   1.506       .  S
C951        H955   1.111       .  S
C951        H956   1.110       .  S
C951        H957   1.107       .  S
C954        H958   1.107       .  S
C954        H959   1.110       .  S
C954        H960   1.112       .  S
C961        C962   1.415       .  A
C961        C966   1.393       .  A
C961        H968   1.071       .  S
C962        C963   1.430       .  A
C963        C964   1.412       .  A
C963        C970   1.505       .  S
C964        C965   1.398       .  A
C964        H969   1.083       .  S
C965        C966   1.411       .  A
C966        C967   1.512       .  S
C967        H971   1.110       .  S
C967        H972   1.109       .  S
C967        H973   1.111       .  S
C970        H974   1.109       .  S
C970        H975   1.110       .  S
C970        H976   1.111       .  S
C977        C978   1.398       .  A
C977        C982   1.399       .  A
C977        H984   1.084       .  S
C978        C979   1.415       .  A
C979        C980   1.402       .  A
C979        C986   1.508       .  S
C980        C981   1.399       .  A
C980        H985   1.084       .  S
C981        C982   1.416       .  A
C982        C983   1.509       .  S
C983        H987   1.111       .  S
C983        H988   1.110       .  S
C983        H989   1.111       .  S
C986        H990   1.110       .  S
C986        H991   1.110       .  S
C986        H992   1.111       .  S
C993        C994   1.399       .  A
C993        C998   1.398       .  A
C993       H1000   1.085       .  S
C994        C995   1.414       .  A
C995        C996   1.407       .  A
C995       C1002   1.507       .  S
C996        C997   1.404       .  A
C996       H1001   1.084       .  S
C997        C998   1.416       .  A
C998        C999   1.509       .  S
C999       H1003   1.110       .  S
C999       H1004   1.106       .  S
C999       H1005   1.111       .  S
C1002      H1006   1.109       .  S
C1002      H1007   1.110       .  S
C1002      H1008   1.111       .  S
C1009      C1010   1.403       .  A
C1009      C1014   1.404       .  A
C1009      H1016   1.084       .  S
C1010      C1011   1.410       .  A
C1011      C1012   1.400       .  A
C1011      C1018   1.507       .  S
C1012      C1013   1.403       .  A
C1012      H1017   1.085       .  S
C1013      C1014   1.412       .  A
C1014      C1015   1.507       .  S
C1015      H1019   1.111       .  S
C1015      H1020   1.110       .  S
C1015      H1021   1.110       .  S
C1018      H1022   1.110       .  S
C1018      H1023   1.110       .  S
C1018      H1024   1.111       .  S
C1025      C1026   1.423       .  A
C1025      C1030   1.413       .  A
C1025      H1032   1.079       .  S
C1026      C1027   1.435       .  A
C1027      C1028   1.393       .  A
C1027      C1034   1.515       .  S
C1028      C1029   1.396       .  A
C1028      H1033   1.086       .  S
C1029      C1030   1.403       .  A
C1030      C1031   1.504       .  S
C1031      H1035   1.111       .  S
C1031      H1036   1.110       .  S
C1031      H1037   1.110       .  S
C1034      H1038   1.106       .  S
C1034      H1039   1.109       .  S
C1034      H1040   1.112       .  S
C1041      C1042   1.398       .  A
C1041      C1046   1.403       .  A
C1041      H1048   1.084       .  S
C1042      C1043   1.418       .  A
C1043      C1044   1.395       .  A
C1043      C1050   1.510       .  S
C1044      C1045   1.397       .  A
C1044      H1049   1.085       .  S
C1045      C1046   1.415       .  A
C1046      C1047   1.507       .  S
C1047      H1051   1.111       .  S
C1047      H1052   1.110       .  S
C1047      H1053   1.110       .  S
C1050      H1054   1.110       .  S
C1050      H1055   1.106       .  S
C1050      H1056   1.111       .  S
