geometry optimzed in LAMMPS
_audit_creation_date              2020-11-30 
_audit_creation_method            'lammps2cif' 
_symmetry_space_group_name_H-M    'P1' 
_symmetry_Int_Tables_number       1 
_symmetry_cell_setting            triclinic 
loop_ 
_symmetry_equiv_pos_as_xyz 
  x,y,z 
_cell_length_a                    31.805909016259793 
_cell_length_b                    31.644462289172097 
_cell_length_c                    32.067173599733096 
_cell_angle_alpha                 89.91789877188681 
_cell_angle_beta                  89.69677846705147 
_cell_angle_gamma                 90.12989889201482 
loop_ 
_atom_site_label 
_atom_site_type_symbol 
_atom_site_fract_x 
_atom_site_fract_y 
_atom_site_fract_z 
_atom_site_charge 
O1          O  0.03469561  0.45845392  0.31334879    -0.82450
O2          O  0.94916193  0.54445673  0.30888078    -0.82470
O3          O  0.08393249  0.54252399  0.26054774    -0.82480
O4          O  0.90572425  0.45931256  0.25598926    -0.82420
O5          O  0.03608716  0.54536356  0.30992880    -0.82540
O6          O  0.94697446  0.45794865  0.31041102    -0.82460
O7          O  0.90593972  0.53857755  0.25606899    -0.82450
O8          O  0.08265836  0.46134037  0.26371784    -0.82480
C9          C  0.07171007  0.45193825  0.30087237     1.07240
C10         C  0.91246832  0.54669467  0.29437732     1.07130
C11         C  0.07343928  0.55084265  0.29781847     1.07270
C12         C  0.91072380  0.45418303  0.29480222     1.07140
O13         O  0.95556480  0.41021813  0.23221708    -0.82450
O14         O  0.03444497  0.58979621  0.22977831    -0.82520
O15         O  0.04173380  0.45597710  0.18270948    -0.82460
O16         O  0.95611287  0.54022155  0.17829936    -0.82440
O17         O  0.95378118  0.58753188  0.22782294    -0.82490
O18         O  0.03487574  0.41148977  0.23534118    -0.82460
O19         O  0.95743768  0.45520405  0.18041472    -0.82420
O20         O  0.04359051  0.54511111  0.17842036    -0.82490
Co21       Co  0.99319808  0.44011025  0.27267705     1.51530
Co22       Co  0.99353740  0.56152284  0.26906837     1.51690
Co23       Co  0.05727985  0.50109786  0.22148401     1.51570
Co24       Co  0.93654850  0.49853855  0.21775827     1.51470
O25         O  0.99536329  0.50036077  0.24534918    -1.44380
C26         C  0.94960083  0.41889134  0.19409921     1.07170
C27         C  0.04478729  0.58270004  0.19196756     1.07260
C28         C  0.04339294  0.41892384  0.19731955     1.07200
C29         C  0.94596284  0.57614780  0.19069342     1.07170
O30         O  0.55292174  0.03619115  0.32108147    -0.82450
O31         O  0.45288471  0.95386581  0.31783784    -0.82470
O32         O  0.46596820  0.08864765  0.27150629    -0.82480
O33         O  0.53654857  0.90420707  0.26882370    -0.82420
O34         O  0.45709778  0.04056328  0.31973684    -0.82540
O35         O  0.54475330  0.94776994  0.32114131    -0.82460
O36         O  0.45713689  0.90952114  0.26568188    -0.82450
O37         O  0.54932122  0.08343458  0.27107025    -0.82480
C38         C  0.56128956  0.07265259  0.30731850     1.07240
C39         C  0.44929361  0.91693646  0.30368073     1.07130
C40         C  0.45225867  0.07788069  0.30731331     1.07270
C41         C  0.54639030  0.91061191  0.30680272     1.07140
O42         O  0.58936173  0.94851496  0.24050761    -0.82450
O43         O  0.41380831  0.04325827  0.23917036    -0.82520
O44         O  0.54895469  0.04194266  0.18991683    -0.82460
O45         O  0.45994863  0.95785680  0.18773885    -0.82440
O46         O  0.41180272  0.96098456  0.23645250    -0.82490
O47         O  0.59395075  0.03034943  0.24029556    -0.82460
O48         O  0.54480889  0.95111472  0.18921796    -0.82420
O49         O  0.46131794  0.04862542  0.18988792    -0.82490
Co50       Co  0.56391315  0.99122781  0.28018105     1.51530
Co51       Co  0.43977401  0.99940461  0.27793465     1.51690
Co52       Co  0.50612547  0.05964575  0.23130978     1.51570
Co53       Co  0.49989534  0.93655402  0.22829954     1.51470
O54         O  0.50242401  0.99705802  0.25496364    -1.44380
C55         C  0.57998651  0.94037011  0.20296398     1.07170
C56         C  0.42410351  0.05483666  0.20251015     1.07260
C57         C  0.58611379  0.04307818  0.20346795     1.07200
C58         C  0.42288105  0.95142468  0.19958293     1.07170
O59         O  0.17754433  0.04932870  0.44837637    -0.82450
O60         O  0.17304548  0.96169515  0.54106569    -0.82470
O61         O  0.22924623  0.96289961  0.40893086    -0.82480
O62         O  0.22556934  0.04883000  0.58286061    -0.82420
O63         O  0.17337682  0.95760117  0.44968591    -0.82540
O64         O  0.17477769  0.05310997  0.53673695    -0.82460
O65         O  0.22534099  0.96651640  0.58542713    -0.82450
O66         O  0.23300382  0.04243683  0.40792794    -0.82480
C67         C  0.19402891  0.04996759  0.41222809     1.07240
C68         C  0.18813769  0.95484599  0.57691675     1.07130
C69         C  0.19062095  0.95355160  0.41369008     1.07270
C70         C  0.18858713  0.06028680  0.57284677     1.07140
O71         O  0.25697246  0.09621186  0.53433155    -0.82450
O72         O  0.24959278  0.91230742  0.45937606    -0.82520
O73         O  0.30963784  0.04514506  0.45684326    -0.82460
O74         O  0.30566630  0.96026103  0.54289383    -0.82440
O75         O  0.25268606  0.91535675  0.53808375    -0.82490
O76         O  0.25868935  0.09210446  0.45561986    -0.82460
O77         O  0.30845028  0.05085840  0.54162815    -0.82420
O78         O  0.30442395  0.95482174  0.45805880    -0.82490
Co79       Co  0.21676985  0.06655841  0.49396093     1.51530
Co80       Co  0.21230107  0.94332857  0.49731631     1.51690
Co81       Co  0.26892140  0.00162146  0.43855173     1.51570
Co82       Co  0.26573977  0.00648197  0.55744043     1.51470
O83         O  0.24026690  0.00436828  0.49682911    -1.44380
C84         C  0.29546210  0.08876760  0.54319087     1.07170
C85         C  0.28814790  0.91843684  0.45329977     1.07260
C86         C  0.29728246  0.08308213  0.45299859     1.07200
C87         C  0.29150706  0.92271023  0.54535100     1.07170
O88         O  0.04649130  0.32034662  0.54632791    -0.82450
O89         O  0.96429648  0.31886901  0.45329414    -0.82470
O90         O  0.09684322  0.26853078  0.46610605    -0.82480
O91         O  0.91359841  0.26698093  0.53643763    -0.82420
O92         O  0.05249382  0.32057103  0.45710055    -0.82540
O93         O  0.95797486  0.31972246  0.54282074    -0.82460
O94         O  0.91826659  0.26710924  0.45688632    -0.82450
O95         O  0.09145716  0.26770531  0.54573745    -0.82480
C96         C  0.08345613  0.30642568  0.55074788     1.07240
C97         C  0.92742074  0.30499053  0.44760232     1.07130
C98         C  0.08962117  0.30671210  0.45484614     1.07270
C99         C  0.92101476  0.30518663  0.54583162     1.07140
O100        O  0.96000218  0.23919903  0.58736070    -0.82450
O101        O  0.05194117  0.23752821  0.41536274    -0.82520
O102        O  0.04805766  0.18696465  0.55070526    -0.82460
O103        O  0.96369066  0.18725559  0.45587059    -0.82440
O104        O  0.96990375  0.23835544  0.41040330    -0.82490
O105        O  0.04014424  0.24105992  0.59269175    -0.82460
O106        O  0.95978521  0.18751931  0.54187616    -0.82420
O107        O  0.05371172  0.18629591  0.46171529    -0.82490
Co108      Co  0.00161541  0.27978435  0.56140757     1.51530
Co109      Co  0.00946692  0.27831476  0.43990976     1.51690
Co110      Co  0.06639754  0.22761124  0.50562045     1.51570
Co111      Co  0.94461872  0.22749111  0.49810981     1.51470
O112        O  0.00550966  0.25345612  0.50118085    -1.44380
C113        C  0.95119656  0.20126922  0.57770303     1.07170
C114        C  0.06190910  0.19995206  0.42552220     1.07260
C115        C  0.04803952  0.20207763  0.58749773     1.07200
C116        C  0.95770735  0.20128854  0.41965696     1.07170
O117        O  0.45638590  0.31330614  0.05172145    -0.82450
O118        O  0.53635283  0.31831927  0.95836773    -0.82470
O119        O  0.53956567  0.26260808  0.09025327    -0.82480
O120        O  0.45200679  0.26756361  0.91765112    -0.82420
O121        O  0.54333530  0.31831671  0.04881220    -0.82540
O122        O  0.45289199  0.31798174  0.96460750    -0.82460
O123        O  0.53189782  0.26649342  0.91296495    -0.82450
O124        O  0.46069824  0.25794821  0.09309060    -0.82480
C125        C  0.45485347  0.29688958  0.08787026     1.07240
C126        C  0.54238866  0.30408486  0.92199558     1.07130
C127        C  0.54793042  0.30180900  0.08501165     1.07270
C128        C  0.44541275  0.30562526  0.92817234     1.07140
O129        O  0.40508403  0.23699666  0.96606181    -0.82450
O130        O  0.58664042  0.24089275  0.03752020    -0.82520
O131        O  0.45362898  0.18291729  0.04430496    -0.82460
O132        O  0.53704856  0.18552462  0.95486002    -0.82440
O133        O  0.58253269  0.23825754  0.95913377    -0.82490
O134        O  0.40937555  0.23650185  0.04457434    -0.82460
O135        O  0.44862567  0.18394756  0.95864886    -0.82420
O136        O  0.54391813  0.18603611  0.03981995    -0.82490
Co137      Co  0.43628360  0.27644638  0.00628655     1.51530
Co138      Co  0.55618528  0.27888371  0.00081856     1.51690
Co139      Co  0.49934039  0.22227763  0.06129856     1.51570
Co140      Co  0.49257081  0.22607192  0.94179543     1.51470
O141        O  0.49619417  0.25077298  0.00279766    -1.44380
C142        C  0.41141255  0.19792870  0.95737453     1.07170
C143        C  0.57988375  0.20244848  0.04468129     1.07260
C144        C  0.41645363  0.19756354  0.04799544     1.07200
C145        C  0.57399382  0.19974521  0.95074565     1.07170
O146        O  0.32033458  0.54136985  0.04167258    -0.82450
O147        O  0.32182851  0.45196787  0.95148813    -0.82470
O148        O  0.26734150  0.45104557  0.08370426    -0.82480
O149        O  0.27018005  0.54100228  0.91167424    -0.82420
O150        O  0.31948876  0.44644258  0.03897498    -0.82540
O151        O  0.32315905  0.54600668  0.95447569    -0.82460
O152        O  0.26944068  0.46194378  0.90849617    -0.82450
O153        O  0.26783833  0.53198297  0.08584184    -0.82480
C154        C  0.30537176  0.54257035  0.07813293     1.07240
C155        C  0.30776975  0.45277308  0.91467503     1.07130
C156        C  0.30484953  0.44009065  0.07512287     1.07270
C157        C  0.30894108  0.54860081  0.91784088     1.07140
O158        O  0.24000359  0.58857292  0.95960364    -0.82450
O159        O  0.23682189  0.40524184  0.03303995    -0.82520
O160        O  0.18919240  0.53888091  0.04228707    -0.82460
O161        O  0.18942579  0.45764393  0.95442091    -0.82440
O162        O  0.23884804  0.40997522  0.95210284    -0.82490
O163        O  0.23989191  0.58570862  0.04086336    -0.82460
O164        O  0.19036696  0.54107653  0.95938603    -0.82420
O165        O  0.18834696  0.45377642  0.03573305    -0.82490
Co166      Co  0.28064651  0.55965476  0.99894022     1.51530
Co167      Co  0.27923633  0.43418517  0.99412853     1.51690
Co168      Co  0.22885022  0.49407152  0.05651413     1.51570
Co169      Co  0.23014405  0.50019346  0.93872951     1.51470
O170        O  0.25641156  0.49708188  0.99734457    -1.44380
C171        C  0.20241220  0.57769173  0.95144452     1.07170
C172        C  0.19952295  0.41658818  0.04246158     1.07260
C173        C  0.20230985  0.57541286  0.05042740     1.07200
C174        C  0.20127070  0.42130879  0.94512572     1.07170
O175        O  0.53818210  0.08991550  0.72797708    -0.82450
O176        O  0.45968077  0.91177136  0.73225047    -0.82470
O177        O  0.54654127  0.95678232  0.67605485    -0.82480
O178        O  0.45707346  0.03970306  0.67976829    -0.82420
O179        O  0.53959736  0.91322506  0.72897995    -0.82540
O180        O  0.45738611  0.08824395  0.72740404    -0.82460
O181        O  0.45641482  0.95803104  0.68197146    -0.82450
O182        O  0.54702012  0.04645597  0.67556370    -0.82480
C183        C  0.54786461  0.08362154  0.69014813     1.07240
C184        C  0.45080555  0.92129853  0.69506320     1.07130
C185        C  0.54810407  0.91963936  0.69054724     1.07270
C186        C  0.44835715  0.07603087  0.69063781     1.07140
O187        O  0.46040146  0.04297036  0.80980574    -0.82450
O188        O  0.54179050  0.96153271  0.80782500    -0.82520
O189        O  0.58963507  0.04303256  0.75695271    -0.82460
O190        O  0.41093852  0.96073311  0.76156359    -0.82440
O191        O  0.45842846  0.95911790  0.81023590    -0.82490
O192        O  0.54236634  0.04443541  0.80657327    -0.82460
O193        O  0.41125009  0.04232812  0.76322685    -0.82420
O194        O  0.58901953  0.96071716  0.75819014    -0.82490
Co195      Co  0.49951433  0.06146809  0.76751058     1.51530
Co196      Co  0.50014905  0.94144502  0.76949076     1.51690
Co197      Co  0.56224485  0.00162296  0.71703192     1.51570
Co198      Co  0.43869086  0.00056199  0.72151174     1.51470
O199        O  0.50041429  0.00113356  0.74282830    -1.44380
C200        C  0.42346584  0.05062113  0.80029758     1.07170
C201        C  0.57797755  0.95294783  0.79572598     1.07260
C202        C  0.57907371  0.05128644  0.79438130     1.07200
C203        C  0.42171153  0.95189162  0.79841292     1.07170
O204        O  0.72949391  0.54471239  0.08416403    -0.82450
O205        O  0.73497193  0.46146731  0.90833566    -0.82470
O206        O  0.67895181  0.54630342  0.95070520    -0.82480
O207        O  0.67983907  0.45439725  0.03902452    -0.82420
O208        O  0.73244563  0.54074534  0.90792644    -0.82540
O209        O  0.73007298  0.46163149  0.08514097    -0.82460
O210        O  0.68174999  0.45592671  0.95190655    -0.82450
O211        O  0.67915266  0.54774105  0.03778716    -0.82480
C212        C  0.69218254  0.55470135  0.07417240     1.07240
C213        C  0.69684223  0.45281205  0.91552097     1.07130
C214        C  0.69358455  0.54885036  0.91408852     1.07270
C215        C  0.69391509  0.44788753  0.07513119     1.07140
O216        O  0.81119072  0.45843000  0.04439796    -0.82450
O217        O  0.81196398  0.54415796  0.95639147    -0.82520
O218        O  0.75998961  0.59247513  0.03433167    -0.82460
O219        O  0.76180522  0.41200340  0.95676604    -0.82440
O220        O  0.81276166  0.45843412  0.95549026    -0.82490
O221        O  0.81208255  0.54809514  0.04293892    -0.82460
O222        O  0.76017632  0.41197474  0.03664643    -0.82420
O223        O  0.76117934  0.59033087  0.95421888    -0.82490
Co224      Co  0.77015078  0.50324021  0.05826745     1.51530
Co225      Co  0.77281712  0.50145022  0.93760831     1.51690
Co226      Co  0.72015965  0.56323848  0.99449529     1.51570
Co227      Co  0.72111626  0.43957176  0.99615056     1.51470
O228        O  0.74564390  0.50167023  0.99697896    -1.44380
C229        C  0.79743026  0.42092529  0.04734797     1.07170
C230        C  0.79912561  0.58018462  0.94695757     1.07260
C231        C  0.79814336  0.58554795  0.04430714     1.07200
C232        C  0.79939719  0.42187873  0.94781496     1.07170
O233        O  0.09465867  0.73506073  0.54512791    -0.82450
O234        O  0.91576560  0.74176115  0.46310926    -0.82470
O235        O  0.96196539  0.68185597  0.54595456    -0.82480
O236        O  0.04514535  0.68305916  0.45858098    -0.82420
O237        O  0.91696819  0.73469507  0.54145272    -0.82540
O238        O  0.09325347  0.73281348  0.46542851    -0.82460
O239        O  0.95816735  0.68759089  0.45796691    -0.82450
O240        O  0.05180774  0.68099856  0.54964051    -0.82480
C241        C  0.08871021  0.69619073  0.55298752     1.07240
C242        C  0.92223803  0.70375104  0.45371468     1.07130
C243        C  0.92494718  0.69604092  0.54914231     1.07270
C244        C  0.08259700  0.69559087  0.45507644     1.07140
O245        O  0.05170666  0.81447238  0.46098934    -0.82450
O246        O  0.96552329  0.81444304  0.54702216    -0.82520
O247        O  0.04381044  0.76176285  0.59274357    -0.82460
O248        O  0.96638184  0.76850655  0.41506043    -0.82440
O249        O  0.96362792  0.81874057  0.46193404    -0.82490
O250        O  0.04932287  0.81434837  0.54798286    -0.82460
O251        O  0.04729412  0.76322966  0.41535144    -0.82420
O252        O  0.96360899  0.76200214  0.59130830    -0.82490
Co253      Co  0.06656512  0.77400372  0.50474699     1.51530
Co254      Co  0.94610968  0.77707393  0.50377968     1.51690
Co255      Co  0.00535721  0.72192039  0.56395907     1.51570
Co256      Co  0.00431202  0.72569645  0.44222648     1.51470
O257        O  0.00573362  0.74903945  0.50350752    -1.44380
C258        C  0.05865253  0.80031100  0.42490695     1.07170
C259        C  0.95501960  0.80012678  0.58186702     1.07260
C260        C  0.05066833  0.80036238  0.58489732     1.07200
C261        C  0.95640456  0.80588777  0.42546843     1.07170
O262        O  0.04777026  0.54555479  0.82637060    -0.82450
O263        O  0.95330717  0.45391637  0.82628631    -0.82470
O264        O  0.95933908  0.58800262  0.77324601    -0.82480
O265        O  0.04186911  0.41201722  0.77151803    -0.82420
O266        O  0.95244481  0.54549606  0.82684561    -0.82540
O267        O  0.04957101  0.45461830  0.82489675    -0.82460
O268        O  0.96197311  0.41175227  0.77258203    -0.82450
O269        O  0.03850820  0.58980247  0.77439964    -0.82480
C270        C  0.04857554  0.58296026  0.81213070     1.07240
C271        C  0.95206436  0.41700133  0.81074613     1.07130
C272        C  0.95103302  0.58254073  0.81157258     1.07270
C273        C  0.05047636  0.41751148  0.80968014     1.07140
O274        O  0.09208717  0.46106162  0.74347954    -0.82450
O275        O  0.91030107  0.54023641  0.74443864    -0.82520
O276        O  0.04351278  0.54604138  0.69426432    -0.82460
O277        O  0.95907229  0.45961533  0.69451749    -0.82440
O278        O  0.91168391  0.45902330  0.74431810    -0.82490
O279        O  0.09011696  0.54494743  0.74405417    -0.82460
O280        O  0.04551366  0.45887460  0.69366597    -0.82420
O281        O  0.95785580  0.54184573  0.69488183    -0.82490
Co282      Co  0.06390879  0.50148210  0.78447124     1.51530
Co283      Co  0.93828214  0.49976794  0.78548859     1.51690
Co284      Co  0.99993573  0.56060770  0.73472191     1.51570
Co285      Co  0.00194612  0.44125425  0.73365880     1.51470
O286        O  0.00120932  0.50064767  0.76129281    -1.44380
C287        C  0.08216503  0.45125839  0.70627573     1.07170
C288        C  0.92072471  0.54829727  0.70678745     1.07260
C289        C  0.07946072  0.55566716  0.70710874     1.07200
C290        C  0.92211408  0.45220365  0.70652584     1.07170
O291        O  0.54616836  0.82737174  0.05021477    -0.82450
O292        O  0.45497467  0.82803083  0.95180701    -0.82470
O293        O  0.58759719  0.77450403  0.96435773    -0.82480
O294        O  0.41070136  0.77553854  0.03889856    -0.82420
O295        O  0.54437534  0.82769730  0.95484750    -0.82540
O296        O  0.45360794  0.82939774  0.04722741    -0.82460
O297        O  0.41202094  0.77446091  0.95991355    -0.82450
O298        O  0.58683907  0.77171167  0.04371635    -0.82480
C299        C  0.58265071  0.81054299  0.05184664     1.07240
C300        C  0.41802644  0.81302660  0.95019083     1.07130
C301        C  0.58130323  0.81298158  0.95395990     1.07270
C302        C  0.41656166  0.81412344  0.04820693     1.07140
O303        O  0.45546118  0.74627325  0.09011019    -0.82450
O304        O  0.54224675  0.74365422  0.91400491    -0.82520
O305        O  0.53987665  0.69410543  0.04725014    -0.82460
O306        O  0.45817437  0.69420903  0.95927621    -0.82440
O307        O  0.46017034  0.74359351  0.91174685    -0.82490
O308        O  0.53608737  0.74614459  0.09243851    -0.82460
O309        O  0.45689418  0.69580528  0.04364871    -0.82420
O310        O  0.54154197  0.69360703  0.96109415    -0.82490
Co311      Co  0.49792764  0.78743082  0.06367243     1.51530
Co312      Co  0.50039890  0.78560384  0.93920065     1.51690
Co313      Co  0.55823549  0.73417748  0.00373184     1.51570
Co314      Co  0.43993161  0.73551093  0.00059840     1.51470
O315        O  0.49924611  0.76252050  0.00186680    -1.44380
C316        C  0.44813175  0.70795689  0.07985731     1.07170
C317        C  0.55016041  0.70564711  0.92472251     1.07260
C318        C  0.54266230  0.70746791  0.08427015     1.07200
C319        C  0.45122718  0.70581014  0.92255660     1.07170
O320        O  0.82986158  0.28162628  0.62662688    -0.82450
O321        O  0.74795200  0.36716901  0.68486390    -0.82470
O322        O  0.84719524  0.35173787  0.70226287    -0.82480
O323        O  0.71102588  0.35374243  0.58573936    -0.82420
O324        O  0.80852772  0.40174793  0.73409638    -0.82540
O325        O  0.74873592  0.30595509  0.61868627    -0.82460
O326        O  0.71376755  0.41269822  0.64689932    -0.82450
O327        O  0.86171598  0.32142066  0.67317890    -0.82480
C328        C  0.85366957  0.28492354  0.65750237     1.07240
C329        C  0.71523318  0.38880780  0.67848097     1.07130
C330        C  0.83174660  0.36921859  0.73631881     1.07270
C331        C  0.71388198  0.31839178  0.60522720     1.07140
O332        O  0.76893175  0.33723953  0.53680732    -0.82450
O333        O  0.85592823  0.43492204  0.67512433    -0.82520
O334        O  0.89461668  0.34439108  0.60262072    -0.82460
O335        O  0.77912940  0.45954935  0.60380910    -0.82440
O336        O  0.77603187  0.45545282  0.67203682    -0.82490
O337        O  0.85067277  0.32537844  0.55318492    -0.82460
O338        O  0.77647703  0.40535717  0.53908895    -0.82420
O339        O  0.91016943  0.39320603  0.66498062    -0.82490
Co340      Co  0.79927688  0.31684007  0.58698870     1.51530
Co341      Co  0.80188416  0.39649418  0.67616777     1.51690
Co342      Co  0.85834238  0.37791193  0.64135329     1.51570
Co343      Co  0.74891643  0.40627408  0.59459295     1.51470
O344        O  0.80051072  0.37371686  0.61752865    -1.44380
C345        C  0.77625772  0.37175480  0.51843734     1.07170
C346        C  0.89518791  0.42639071  0.68032212     1.07260
C347        C  0.88746349  0.32826508  0.56729301     1.07200
C348        C  0.77792991  0.47768074  0.63885564     1.07170
O349        O  0.64786061  0.29621887  0.84889040    -0.82450
O350        O  0.64906303  0.41180107  0.71012647    -0.82470
O351        O  0.63220834  0.31576534  0.74652753    -0.82480
O352        O  0.72008502  0.36813185  0.82567850    -0.82420
O353        O  0.58553520  0.35476443  0.71488970    -0.82540
O354        O  0.67878275  0.32640058  0.86283009    -0.82460
O355        O  0.69569898  0.37563759  0.74608114    -0.82450
O356        O  0.60217562  0.26272466  0.80724534    -0.82480
C357        C  0.63291149  0.26102972  0.83260337     1.07240
C358        C  0.68380008  0.39101527  0.71215946     1.07130
C359        C  0.60963065  0.32332124  0.71503807     1.07270
C360        C  0.71566936  0.33961646  0.85226139     1.07140
O361        O  0.65554138  0.39795328  0.89079801    -0.82450
O362        O  0.54219637  0.39909254  0.77957289    -0.82520
O363        O  0.56669370  0.32409367  0.85444815    -0.82460
O364        O  0.67152638  0.46108388  0.76458891    -0.82440
O365        O  0.60394688  0.46202922  0.77571410    -0.82490
O366        O  0.60584701  0.33846611  0.90900976    -0.82460
O367        O  0.68097714  0.44420977  0.84560841    -0.82420
O368        O  0.54544466  0.32934727  0.77778968    -0.82490
Co369      Co  0.62270253  0.35871180  0.85641360     1.51530
Co370      Co  0.59652761  0.40638146  0.74882570     1.51690
Co371      Co  0.60519176  0.32273969  0.80069913     1.51570
Co372      Co  0.68724283  0.40904522  0.79544602     1.51470
O373        O  0.62878885  0.38133378  0.79883304    -1.44380
C374        C  0.67449602  0.43182964  0.88244426     1.07170
C375        C  0.52360478  0.36336160  0.78006800     1.07260
C376        C  0.57217631  0.32461171  0.89423769     1.07200
C377        C  0.63854898  0.48139144  0.77225640     1.07170
O378        O  0.65481794  0.18816549  0.71615649    -0.82450
O379        O  0.68849923  0.25432584  0.63014466    -0.82470
O380        O  0.70633903  0.16189073  0.64692387    -0.82480
O381        O  0.58425482  0.29128421  0.65142258    -0.82420
O382        O  0.73446849  0.19299856  0.59125419    -0.82540
O383        O  0.63006808  0.26024110  0.69054111    -0.82460
O384        O  0.64518421  0.28920806  0.58998345    -0.82450
O385        O  0.64979657  0.12399365  0.69423701    -0.82480
C386        C  0.65820387  0.14952098  0.72330817     1.07240
C387        C  0.67973673  0.28722556  0.60971831     1.07130
C388        C  0.73879660  0.17421790  0.62593295     1.07270
C389        C  0.60863435  0.29163992  0.68273420     1.07140
O390        O  0.54268987  0.22793155  0.67865790    -0.82450
O391        O  0.66797418  0.14454655  0.57100311    -0.82520
O392        O  0.58697889  0.11804868  0.63422694    -0.82460
O393        O  0.59892644  0.22212467  0.54689193    -0.82440
O394        O  0.66763902  0.22574368  0.54703374    -0.82490
O395        O  0.57399069  0.15120328  0.69408606    -0.82460
O396        O  0.53947560  0.22295181  0.61017939    -0.82420
O397        O  0.66859819  0.09178238  0.61655251    -0.82490
Co398      Co  0.60176119  0.20732837  0.69168368     1.51530
Co399      Co  0.67629183  0.20010664  0.60397346     1.51690
Co400      Co  0.64443949  0.14329472  0.63448585     1.51570
Co401      Co  0.59310268  0.25264968  0.60094032     1.51470
O402        O  0.62053710  0.20222324  0.63232667    -1.44380
C403        C  0.52155697  0.22219270  0.64552660     1.07170
C404        C  0.67781884  0.10634660  0.58069310     1.07260
C405        C  0.56840461  0.11994194  0.66959731     1.07200
C406        C  0.63338303  0.22383517  0.52699674     1.07170
O407        O  0.90298606  0.24107975  0.69678048    -0.82450
O408        O  0.80262353  0.13313512  0.75805637    -0.82470
O409        O  0.80975301  0.15357217  0.61933303    -0.82480
O410        O  0.90911627  0.14381723  0.78601291    -0.82420
O411        O  0.78460048  0.16127772  0.68186892    -0.82540
O412        O  0.86702169  0.18776899  0.75401172    -0.82460
O413        O  0.84425155  0.08714568  0.78732951    -0.82450
O414        O  0.85697602  0.21015040  0.65478799    -0.82480
C415        C  0.87206646  0.24406503  0.67192018     1.07240
C416        C  0.81257566  0.11199897  0.78935338     1.07130
C417        C  0.78007015  0.16458615  0.64297030     1.07270
C418        C  0.88788298  0.17745273  0.78588921     1.07140
O419        O  0.95111747  0.16956130  0.72397053    -0.82450
O420        O  0.80295066  0.07866175  0.64874191    -0.82520
O421        O  0.88785566  0.16503391  0.58914433    -0.82460
O422        O  0.88528570  0.04303374  0.71728756    -0.82440
O423        O  0.81650473  0.04701629  0.72491164    -0.82490
O424        O  0.92883908  0.17701761  0.64416549    -0.82460
O425        O  0.95078152  0.10022629  0.71870518    -0.82420
O426        O  0.86539640  0.08634268  0.61842549    -0.82490
Co427      Co  0.89342285  0.18078873  0.69985728     1.51530
Co428      Co  0.80494285  0.10669688  0.70389441     1.51690
Co429      Co  0.86800943  0.14542716  0.64071891     1.51570
Co430      Co  0.89603981  0.09456013  0.74854585     1.51470
O431        O  0.86563860  0.12460550  0.69972889    -1.44380
C432        C  0.97103029  0.13463805  0.72177268     1.07170
C433        C  0.82841564  0.07028472  0.61918520     1.07260
C434        C  0.92200329  0.17847910  0.60440510     1.07200
C435        C  0.84975985  0.02536556  0.71882013     1.07170
O436        O  0.64398627  0.18423052  0.82884933    -0.82450
O437        O  0.78410998  0.08999134  0.85584216    -0.82470
O438        O  0.74678024  0.19792162  0.89551467    -0.82480
O439        O  0.69041336  0.10131480  0.76891289    -0.82420
O440        O  0.78481551  0.14581618  0.92082855    -0.82540
O441        O  0.65427361  0.15384384  0.79892509    -0.82460
O442        O  0.74992241  0.13644830  0.81911406    -0.82450
O443        O  0.66802727  0.22113333  0.88223742    -0.82480
C444        C  0.64991075  0.21979641  0.84754612     1.07240
C445        C  0.78225659  0.11403753  0.82427346     1.07130
C446        C  0.78191407  0.18208688  0.90308859     1.07270
C447        C  0.66838984  0.13440183  0.76532170     1.07140
O448        O  0.59047836  0.11322907  0.83145629    -0.82450
O449        O  0.71795107  0.08970947  0.96204261    -0.82520
O450        O  0.64112625  0.16981299  0.95009169    -0.82460
O451        O  0.72230876  0.04770481  0.82955042    -0.82440
O452        O  0.71750019  0.04129810  0.89707340    -0.82490
O453        O  0.60284061  0.16264506  0.89393225    -0.82460
O454        O  0.64312380  0.06849899  0.82857500    -0.82420
O455        O  0.72080907  0.15713874  0.97324813    -0.82490
Co456      Co  0.64087755  0.12686804  0.85887692     1.51530
Co457      Co  0.74765356  0.09383080  0.90821242     1.51690
Co458      Co  0.69487661  0.18242989  0.92211917     1.51570
Co459      Co  0.69644728  0.10665830  0.82711775     1.51470
O460        O  0.69726939  0.12844154  0.88620954    -1.44380
C461        C  0.60505884  0.07829085  0.81971654     1.07170
C462        C  0.71400697  0.12002453  0.98650657     1.07260
C463        C  0.60678609  0.17416567  0.93143434     1.07200
C464        C  0.71914049  0.02438078  0.86179377     1.07170
O465        O  0.75848648  0.30173383  0.90269694    -0.82450
O466        O  0.86835723  0.24033857  0.81123602    -0.82470
O467        O  0.84954670  0.37664911  0.80747850    -0.82480
O468        O  0.85191446  0.20989119  0.91237264    -0.82420
O469        O  0.84565153  0.31312501  0.78283856    -0.82540
O470        O  0.80941494  0.24141722  0.86908464    -0.82460
O471        O  0.91292789  0.20813544  0.85082527    -0.82450
O472        O  0.79018328  0.34161292  0.85462820    -0.82480
C473        C  0.75608573  0.32541791  0.87079188     1.07240
C474        C  0.88922850  0.20846679  0.81897966     1.07130
C475        C  0.84178169  0.35213967  0.77749757     1.07270
C476        C  0.81733065  0.21052794  0.89287869     1.07140
O477        O  0.82733186  0.27477103  0.95087309    -0.82450
O478        O  0.92595325  0.34874698  0.80633765    -0.82520
O479        O  0.83364501  0.40965140  0.88403604    -0.82460
O480        O  0.95519052  0.27828090  0.89434936    -0.82440
O481        O  0.95524780  0.27147054  0.82628498    -0.82490
O482        O  0.82296142  0.35462299  0.92656468    -0.82460
O483        O  0.89612363  0.27922161  0.95271210    -0.82420
O484        O  0.91290322  0.38076151  0.86649191    -0.82490
Co485      Co  0.81816864  0.29765338  0.89315859     1.51530
Co486      Co  0.89729702  0.29283693  0.80966419     1.51690
Co487      Co  0.85419742  0.35709171  0.86679100     1.51570
Co488      Co  0.90286107  0.24754183  0.90080898     1.51470
O489        O  0.87541505  0.29748733  0.86809251    -1.44380
C490        C  0.86141619  0.27712274  0.97132731     1.07170
C491        C  0.93138605  0.37986906  0.83093548     1.07260
C492        C  0.82139737  0.39473167  0.91877479     1.07200
C493        C  0.97478935  0.27677579  0.86052099     1.07170
O494        O  0.28359138  0.18651206  0.65414838    -0.82450
O495        O  0.36869748  0.24389231  0.69929841    -0.82470
O496        O  0.35242458  0.14116703  0.69591829    -0.82480
O497        O  0.36024275  0.29301296  0.59059845    -0.82420
O498        O  0.40059224  0.17211747  0.73505066    -0.82540
O499        O  0.31774041  0.26288201  0.63394543    -0.82460
O500        O  0.41089182  0.28163365  0.65873961    -0.82450
O501        O  0.30565264  0.12160891  0.64337833    -0.82480
C502        C  0.27718261  0.14698446  0.65547116     1.07240
C503        C  0.38839103  0.27795572  0.69158717     1.07130
C504        C  0.36836816  0.14845135  0.73146901     1.07270
C505        C  0.32590956  0.29344022  0.61064364     1.07140
O506        O  0.33329284  0.23205151  0.54910913    -0.82450
O507        O  0.42804509  0.13972850  0.66065480    -0.82520
O508        O  0.35902664  0.12071295  0.57362853    -0.82460
O509        O  0.45663806  0.21572895  0.61210854    -0.82440
O510        O  0.45319375  0.21700912  0.67960823    -0.82490
O511        O  0.29971531  0.15681350  0.57173306    -0.82460
O512        O  0.40287480  0.22445381  0.54999233    -0.82420
O513        O  0.38751529  0.08369506  0.64868229    -0.82490
Co514      Co  0.31095943  0.21030004  0.60381787     1.51530
Co515      Co  0.39416589  0.19133760  0.67926058     1.51690
Co516      Co  0.36622819  0.13744161  0.63339423     1.51570
Co517      Co  0.40622184  0.25020019  0.60379850     1.51470
O518        O  0.36897038  0.20020998  0.62366529    -1.44380
C519        C  0.36885830  0.22746998  0.53080619     1.07170
C520        C  0.42057020  0.10020469  0.66458649     1.07260
C521        C  0.32095566  0.12440792  0.56123427     1.07200
C522        C  0.47523592  0.21766601  0.64642568     1.07170
O523        O  0.15470909  0.31245586  0.67232038    -0.82450
O524        O  0.28858678  0.41190410  0.64652486    -0.82470
O525        O  0.25512411  0.30414374  0.60898171    -0.82480
O526        O  0.19277544  0.39627940  0.73376956    -0.82420
O527        O  0.29360449  0.35656263  0.58294771    -0.82540
O528        O  0.16119478  0.34195432  0.70291413    -0.82460
O529        O  0.25437751  0.36414352  0.68274965    -0.82450
O530        O  0.17495300  0.27968943  0.61507495    -0.82480
C531        C  0.16069280  0.27820310  0.65101705     1.07240
C532        C  0.28693357  0.38638542  0.67708401     1.07130
C533        C  0.29039735  0.32043914  0.60064905     1.07270
C534        C  0.17237706  0.36183661  0.73698637     1.07140
O535        O  0.09738758  0.38512149  0.67453584    -0.82450
O536        O  0.22888178  0.40616493  0.53592879    -0.82520
O537        O  0.15165553  0.33372562  0.55130986    -0.82460
O538        O  0.22623769  0.45231798  0.67246336    -0.82440
O539        O  0.22282559  0.45886624  0.60424857    -0.82490
O540        O  0.11189582  0.34012191  0.60776324    -0.82460
O541        O  0.14757613  0.43210229  0.67313936    -0.82420
O542        O  0.23666156  0.33843812  0.53230896    -0.82490
Co543      Co  0.14883003  0.37229297  0.64543266     1.51530
Co544      Co  0.25486902  0.40709396  0.59306924     1.51690
Co545      Co  0.20441792  0.31890279  0.58040154     1.51570
Co546      Co  0.20093462  0.39339756  0.67489858     1.51470
O547        O  0.20453317  0.37266666  0.61553472    -1.44380
C548        C  0.10958393  0.42211320  0.68274267     1.07170
C549        C  0.22995066  0.37262820  0.51451522     1.07260
C550        C  0.11634126  0.33117604  0.56963532     1.07200
C551        C  0.22282289  0.47549380  0.64011385     1.07170
O552        O  0.41162966  0.26428582  0.82100723    -0.82450
O553        O  0.30816032  0.36601700  0.74230853    -0.82470
O554        O  0.30783024  0.35233739  0.88143839    -0.82480
O555        O  0.40941636  0.34535092  0.71905530    -0.82420
O556        O  0.28388494  0.34324224  0.81884997    -0.82540
O557        O  0.37067254  0.30288354  0.75762614    -0.82460
O558        O  0.35114729  0.40926570  0.71114314    -0.82450
O559        O  0.35478516  0.29401590  0.84839635    -0.82480
C560        C  0.37575852  0.26077253  0.83803354     1.07240
C561        C  0.31820548  0.38634322  0.71052264     1.07130
C562        C  0.27873071  0.34040029  0.85788233     1.07270
C563        C  0.38854513  0.31110187  0.72353260     1.07140
O564        O  0.45593471  0.32760435  0.78194510    -0.82450
O565        O  0.30547303  0.42630664  0.84840060    -0.82520
O566        O  0.38300816  0.34033048  0.91415018    -0.82460
O567        O  0.39384412  0.45660619  0.77603740    -0.82440
O568        O  0.32447976  0.45432324  0.77177349    -0.82490
O569        O  0.43026701  0.33634130  0.86293754    -0.82460
O570        O  0.45587847  0.39640767  0.78079633    -0.82420
O571        O  0.36631502  0.41768176  0.88065660    -0.82490
Co572      Co  0.39800769  0.32154492  0.80878588     1.51530
Co573      Co  0.30874369  0.39582978  0.79482449     1.51690
Co574      Co  0.36685429  0.35818301  0.86104532     1.51570
Co575      Co  0.40122020  0.40077592  0.75048401     1.51470
O576        O  0.36846765  0.37667481  0.80113423    -1.44380
C577        C  0.47635366  0.36217360  0.78138001     1.07170
C578        C  0.32981617  0.43413518  0.87874548     1.07260
C579        C  0.41934546  0.33046441  0.90135953     1.07200
C580        C  0.35872749  0.47528212  0.77590117     1.07170
O581        O  0.20484642  0.33783225  0.85398836    -0.82450
O582        O  0.07883459  0.20763357  0.86017586    -0.82470
O583        O  0.18844450  0.24784983  0.87524286    -0.82480
O584        O  0.15379176  0.30799917  0.78611149    -0.82420
O585        O  0.14438144  0.21268066  0.91559323    -0.82540
O586        O  0.14979212  0.37302756  0.80670691    -0.82460
O587        O  0.12545333  0.23579390  0.81918770    -0.82450
O588        O  0.23362140  0.31178888  0.91105346    -0.82480
C589        C  0.23765748  0.32884896  0.87541492     1.07240
C590        C  0.10204741  0.20535081  0.82818366     1.07130
C591        C  0.17757757  0.21393986  0.89302757     1.07270
C592        C  0.15913658  0.34671049  0.77858503     1.07140
O593        O  0.08601425  0.38188183  0.86668207    -0.82450
O594        O  0.10010068  0.28196697  0.95943120    -0.82520
O595        O  0.16500883  0.35837601  0.93036819    -0.82460
O596        O  0.04186787  0.27182237  0.82915874    -0.82440
O597        O  0.03834895  0.27880164  0.89788516    -0.82490
O598        O  0.16706182  0.40868514  0.88198771    -0.82460
O599        O  0.07390852  0.34785178  0.80738203    -0.82420
O600        O  0.16851455  0.27738901  0.95857909    -0.82490
Co601      Co  0.14318877  0.35650343  0.86693386     1.51530
Co602      Co  0.09184809  0.24917792  0.90701079     1.51690
Co603      Co  0.17518605  0.30202202  0.90020615     1.51570
Co604      Co  0.10028007  0.29051771  0.81348814     1.51470
O605        O  0.11940625  0.29776461  0.87224265    -1.44380
C606        C  0.06868711  0.38012265  0.83092459     1.07170
C607        C  0.13437820  0.27960347  0.97923580     1.07260
C608        C  0.17549815  0.39578797  0.91849331     1.07200
C609        C  0.02073701  0.27699122  0.86244867     1.07170
O610        O  0.23044573  0.09342860  0.67936174    -0.82450
O611        O  0.12274828  0.18174463  0.76554686    -0.82470
O612        O  0.14425237  0.20635283  0.63580896    -0.82480
O613        O  0.15012773  0.08973280  0.78328931    -0.82420
O614        O  0.14468733  0.22426148  0.70107124    -0.82540
O615        O  0.19201253  0.13067227  0.74583831    -0.82460
O616        O  0.07872882  0.14007119  0.79477572    -0.82450
O617        O  0.20313326  0.15478860  0.66183209    -0.82480
C618        C  0.23545809  0.13078365  0.66638358     1.07240
C619        C  0.10115825  0.17287373  0.79639340     1.07130
C620        C  0.14965989  0.23450208  0.66381192     1.07270
C621        C  0.18427342  0.11126945  0.77925425     1.07140
O622        O  0.17137052  0.04640356  0.71818117    -0.82450
O623        O  0.06701198  0.20089928  0.65823665    -0.82520
O624        O  0.16274570  0.12827913  0.59184696    -0.82460
O625        O  0.03748669  0.09951198  0.72542396    -0.82440
O626        O  0.03670044  0.16911289  0.73139812    -0.82490
O627        O  0.15800163  0.07640386  0.63830329    -0.82460
O628        O  0.10329077  0.04340315  0.71719782    -0.82420
O629        O  0.08276017  0.14350549  0.62178047    -0.82490
Co630      Co  0.17331925  0.10557505  0.69356608     1.51530
Co631      Co  0.09413806  0.19083806  0.71424775     1.51690
Co632      Co  0.14057044  0.14298414  0.64533455     1.51570
Co633      Co  0.09385292  0.09490782  0.75144842     1.51470
O634        O  0.11734766  0.13320245  0.70331807    -1.44380
C635        C  0.13814116  0.02440765  0.71798148     1.07170
C636        C  0.06424239  0.17909332  0.62470406     1.07260
C637        C  0.16700514  0.08926898  0.60116550     1.07200
C638        C  0.01758686  0.13424289  0.72546149     1.07170
O639        O  0.31769631  0.21483912  0.84730183    -0.82450
O640        O  0.25231136  0.13025450  0.80254958    -0.82470
O641        O  0.35627253  0.14455981  0.80284303    -0.82480
O642        O  0.20668274  0.14451460  0.90911168    -0.82420
O643        O  0.32247466  0.09792432  0.76351795    -0.82540
O644        O  0.23908851  0.18662458  0.86650313    -0.82460
O645        O  0.21501160  0.08863595  0.84365884    -0.82450
O646        O  0.38077369  0.18913152  0.85763019    -0.82480
C647        C  0.35731188  0.21939228  0.84674560     1.07240
C648        C  0.21817206  0.11091864  0.81074238     1.07130
C649        C  0.34784895  0.12900208  0.76718872     1.07270
C650        C  0.20742042  0.17879138  0.88836561     1.07140
O651        O  0.26703864  0.16872831  0.95198987    -0.82450
O652        O  0.35878877  0.06835097  0.83348979    -0.82520
O653        O  0.37887420  0.13524244  0.92509307    -0.82460
O654        O  0.27899971  0.04210531  0.89026640    -0.82440
O655        O  0.27986142  0.04491486  0.82222793    -0.82490
O656        O  0.34422974  0.19572305  0.92954154    -0.82460
O657        O  0.27301825  0.09893140  0.95191966    -0.82420
O658        O  0.41457309  0.10772580  0.84805124    -0.82490
Co659      Co  0.29136663  0.18856469  0.89705465     1.51530
Co660      Co  0.30574335  0.10399870  0.82006113     1.51690
Co661      Co  0.36140941  0.12933489  0.86523119     1.51570
Co662      Co  0.24722934  0.09500583  0.89777743     1.51470
O663        O  0.29895132  0.12936613  0.87665746    -1.44380
C664        C  0.27064240  0.13337323  0.97099496     1.07170
C665        C  0.39833605  0.07607361  0.82925341     1.07260
C666        C  0.37575526  0.17319246  0.93905137     1.07200
C667        C  0.27921125  0.02317849  0.85574049     1.07170
O668        O  0.65025377  0.88276758  0.68800316    -0.82450
O669        O  0.64689234  0.71387384  0.58665343    -0.82470
O670        O  0.63107229  0.74408527  0.68758318    -0.82480
O671        O  0.73570389  0.80982283  0.58823465    -0.82420
O672        O  0.58561492  0.71203290  0.64882424    -0.82540
O673        O  0.70666585  0.84489045  0.64127237    -0.82460
O674        O  0.69025048  0.74828007  0.62701277    -0.82450
O675        O  0.65446030  0.81938566  0.71346665    -0.82480
C676        C  0.65843318  0.85876317  0.71823154     1.07240
C677        C  0.68188072  0.71579294  0.60560181     1.07130
C678        C  0.60878990  0.71275870  0.68113361     1.07270
C679        C  0.73932809  0.83036578  0.62191330     1.07140
O680        O  0.66628958  0.91333328  0.60983204    -0.82450
O681        O  0.54080285  0.77956923  0.60544801    -0.82520
O682        O  0.57343842  0.85192064  0.69186715    -0.82460
O683        O  0.66985299  0.77806371  0.54469296    -0.82440
O684        O  0.60117067  0.78108069  0.54355685    -0.82490
O685        O  0.58538394  0.88593974  0.63222485    -0.82460
O686        O  0.67040385  0.85868694  0.56681106    -0.82420
O687        O  0.54278087  0.77479505  0.67398402    -0.82490
Co688      Co  0.64368602  0.86159974  0.62959726     1.51530
Co689      Co  0.59484160  0.75046889  0.59762360     1.51690
Co690      Co  0.60200219  0.79685970  0.68848014     1.51570
Co691      Co  0.67793577  0.80323795  0.60122380     1.51470
O692        O  0.62161984  0.80171010  0.62901464    -1.44380
C693        C  0.67756163  0.89793205  0.57495898     1.07170
C694        C  0.52190288  0.77906945  0.64019223     1.07260
C695        C  0.56767994  0.88360880  0.66824905     1.07200
C696        C  0.63607283  0.78132387  0.52437241     1.07170
O697        O  0.85902976  0.68080083  0.67266959    -0.82450
O698        O  0.71278550  0.59099655  0.64455340    -0.82470
O699        O  0.75229372  0.69937480  0.60827165    -0.82480
O700        O  0.80792565  0.60104068  0.73300806    -0.82420
O701        O  0.71307387  0.64907136  0.58087801    -0.82540
O702        O  0.84691243  0.65101240  0.70143336    -0.82460
O703        O  0.74765946  0.63572009  0.68291321    -0.82450
O704        O  0.83345946  0.71942050  0.62131781    -0.82480
C705        C  0.85334341  0.71703049  0.65516147     1.07240
C706        C  0.71438951  0.61479666  0.67620705     1.07130
C707        C  0.71673964  0.68541123  0.59846009     1.07270
C708        C  0.83194601  0.63304894  0.73552404     1.07140
O709        O  0.90912652  0.60860254  0.66673503    -0.82450
O710        O  0.77700375  0.59289099  0.53669051    -0.82520
O711        O  0.85650684  0.66922314  0.55105542    -0.82460
O712        O  0.77475316  0.54717751  0.67126539    -0.82440
O713        O  0.77790123  0.54208404  0.60315851    -0.82490
O714        O  0.89624400  0.65866641  0.60564686    -0.82460
O715        O  0.85480999  0.56650853  0.67463976    -0.82420
O716        O  0.77589369  0.66099614  0.52852317    -0.82490
Co717      Co  0.85807294  0.62382730  0.64126859     1.51530
Co718      Co  0.74905106  0.59567191  0.59226099     1.51690
Co719      Co  0.80388098  0.68299434  0.58065370     1.51570
Co720      Co  0.80143399  0.60581980  0.67472439     1.51470
O721        O  0.80082769  0.62803807  0.61532465    -1.44380
C722        C  0.89394687  0.57492482  0.68099826     1.07170
C723        C  0.78000257  0.62435615  0.51304334     1.07260
C724        C  0.89168917  0.67112081  0.56855985     1.07200
C725        C  0.77718613  0.52451999  0.63848961     1.07170
O726        O  0.68942152  0.65225528  0.87939926    -0.82450
O727        O  0.58527472  0.64967616  0.71479106    -0.82470
O728        O  0.69012334  0.63603973  0.74057402    -0.82480
O729        O  0.58856249  0.73894574  0.81093468    -0.82420
O730        O  0.64864755  0.59119018  0.71009640    -0.82540
O731        O  0.64186350  0.70879227  0.84462540    -0.82460
O732        O  0.62600903  0.69345352  0.74888414    -0.82450
O733        O  0.71422299  0.65934955  0.81653328    -0.82480
C734        C  0.71920280  0.66256301  0.85545608     1.07240
C735        C  0.60698099  0.68304312  0.71583032     1.07130
C736        C  0.68146185  0.61481654  0.70914895     1.07270
C737        C  0.62262293  0.74198937  0.83120844     1.07140
O738        O  0.61196600  0.66596522  0.91195203    -0.82450
O739        O  0.60523367  0.54576967  0.77871714    -0.82520
O740        O  0.69404140  0.57647264  0.84748439    -0.82460
O741        O  0.54291391  0.67234240  0.77889217    -0.82440
O742        O  0.54306152  0.60328867  0.78089099    -0.82490
O743        O  0.63402353  0.58571083  0.88201821    -0.82460
O744        O  0.56739547  0.67304929  0.85944856    -0.82420
O745        O  0.67405556  0.54826359  0.77063711    -0.82490
Co746      Co  0.63037558  0.64499062  0.85968523     1.51530
Co747      Co  0.59713747  0.59858542  0.74999537     1.51690
Co748      Co  0.68967064  0.60660395  0.79339467     1.51570
Co749      Co  0.60063000  0.68092283  0.80329843     1.51470
O750        O  0.62940985  0.62513185  0.80001712    -1.44380
C751        C  0.57716908  0.67941889  0.89805551     1.07170
C752        C  0.63977868  0.52737475  0.77491232     1.07260
C753        C  0.67068057  0.56901069  0.87893807     1.07200
C754        C  0.52289521  0.63764033  0.78044035     1.07170
O755        O  0.85625338  0.79223832  0.65316424    -0.82450
O756        O  0.84355359  0.91765950  0.78371265    -0.82470
O757        O  0.86476866  0.81623779  0.75430913    -0.82480
O758        O  0.78449099  0.84282783  0.67830591    -0.82420
O759        O  0.90752541  0.86033595  0.78517669    -0.82540
O760        O  0.81082199  0.84871242  0.61602110    -0.82460
O761        O  0.80305394  0.87113770  0.75362060    -0.82450
O762        O  0.90010776  0.76175403  0.69746556    -0.82480
C763        C  0.87058215  0.75834155  0.67090557     1.07240
C764        C  0.81207193  0.89281838  0.78470475     1.07130
C765        C  0.88678083  0.82608070  0.78563639     1.07270
C766        C  0.78041490  0.83922550  0.63943985     1.07140
O767        O  0.86599495  0.91542160  0.61399157    -0.82450
O768        O  0.94882250  0.90464313  0.71665198    -0.82520
O769        O  0.92862903  0.82512047  0.64588005    -0.82460
O770        O  0.81594590  0.95718617  0.72110586    -0.82440
O771        O  0.88471288  0.96110649  0.71445288    -0.82490
O772        O  0.89051528  0.83550469  0.58852318    -0.82460
O773        O  0.80383642  0.92475152  0.64446358    -0.82420
O774        O  0.94886728  0.83540697  0.72389804    -0.82490
Co775      Co  0.86848843  0.85683709  0.63849035     1.51530
Co776      Co  0.89491466  0.90972737  0.74620062     1.51690
Co777      Co  0.89144520  0.82242534  0.69986502     1.51570
Co778      Co  0.80488958  0.89739777  0.69991871     1.51470
O779        O  0.86511787  0.87907185  0.69719815    -1.44380
C780        C  0.82910837  0.93177329  0.61434189     1.07170
C781        C  0.96862668  0.87067062  0.72169345     1.07260
C782        C  0.92375747  0.82243692  0.60608348     1.07200
C783        C  0.84946669  0.97897384  0.71699165     1.07170
O784        O  0.79362568  0.66159341  0.85177892    -0.82450
O785        O  0.91430840  0.79370282  0.84992565    -0.82470
O786        O  0.81062444  0.75400654  0.87013675    -0.82480
O787        O  0.84802199  0.68781015  0.78290097    -0.82420
O788        O  0.85302263  0.78946346  0.91092263    -0.82540
O789        O  0.85162982  0.62391837  0.80623957    -0.82460
O790        O  0.87122068  0.76068562  0.80924293    -0.82450
O791        O  0.76470353  0.69117188  0.90750123    -0.82480
C792        C  0.76068875  0.67279770  0.87260943     1.07240
C793        C  0.89063219  0.79338483  0.81788579     1.07130
C794        C  0.81959604  0.78745400  0.88966037     1.07270
C795        C  0.84358230  0.64899445  0.77679362     1.07140
O796        O  0.91308320  0.61859239  0.86735945    -0.82450
O797        O  0.89914179  0.72287839  0.95439539    -0.82520
O798        O  0.83225694  0.64415466  0.92849783    -0.82460
O799        O  0.95796439  0.72976077  0.82545323    -0.82440
O800        O  0.95866410  0.72496172  0.89390093    -0.82490
O801        O  0.83199791  0.59182790  0.88243449    -0.82460
O802        O  0.92812611  0.65169152  0.80798755    -0.82420
O803        O  0.83047850  0.72473574  0.95354841    -0.82490
Co804      Co  0.85563245  0.64370000  0.86557806     1.51530
Co805      Co  0.90515961  0.75393598  0.90070739     1.51690
Co806      Co  0.82312925  0.69970861  0.89598675     1.51570
Co807      Co  0.90000353  0.70792077  0.80967541     1.51470
O808        O  0.87917207  0.70298790  0.86849065    -1.44380
C809        C  0.93220701  0.61992727  0.83227762     1.07170
C810        C  0.86456911  0.72301093  0.97396923     1.07260
C811        C  0.82335141  0.60583670  0.91851067     1.07200
C812        C  0.97779809  0.72474819  0.85953174     1.07170
O813        O  0.65371337  0.85769914  0.79255607    -0.82450
O814        O  0.78737973  0.85373539  0.91204066    -0.82470
O815        O  0.74801581  0.87093314  0.80993689    -0.82480
O816        O  0.67973834  0.78745808  0.84509802    -0.82420
O817        O  0.78329133  0.91380171  0.85036589    -0.82540
O818        O  0.61669989  0.81309008  0.85086202    -0.82460
O819        O  0.75588234  0.81183989  0.86857044    -0.82450
O820        O  0.68882822  0.91049215  0.76293300    -0.82480
C821        C  0.66790807  0.87660812  0.75949917     1.07240
C822        C  0.78753057  0.82056903  0.88945748     1.07130
C823        C  0.78090924  0.89158760  0.81766808     1.07270
C824        C  0.64048619  0.78298797  0.84145269     1.07140
O825        O  0.61455933  0.87049169  0.91409095    -0.82450
O826        O  0.71711178  0.95807224  0.89488581    -0.82520
O827        O  0.64123551  0.93414757  0.82859952    -0.82460
O828        O  0.72486490  0.82903162  0.95423556    -0.82440
O829        O  0.71976845  0.89854850  0.95597329    -0.82490
O830        O  0.58677972  0.89037640  0.83378445    -0.82460
O831        O  0.64782084  0.80995359  0.92596189    -0.82420
O832        O  0.72148285  0.95713738  0.82689904    -0.82490
Co833      Co  0.63813537  0.87166807  0.85569345     1.51530
Co834      Co  0.74815400  0.90468538  0.90230575     1.51690
Co835      Co  0.69533050  0.89916098  0.82088473     1.51570
Co836      Co  0.70259259  0.81265027  0.89686113     1.51470
O837        O  0.69746845  0.87228265  0.87696582    -1.44380
C838        C  0.61685726  0.83441937  0.93239750     1.07170
C839        C  0.71884539  0.97779247  0.86060891     1.07260
C840        C  0.60264129  0.92499453  0.82116632     1.07200
C841        C  0.72142446  0.86363301  0.97459228     1.07170
O842        O  0.31151595  0.87260642  0.64473744    -0.82450
O843        O  0.41210356  0.71131022  0.64534544    -0.82470
O844        O  0.31403171  0.73899691  0.61336302    -0.82480
O845        O  0.34385353  0.81669564  0.71194317    -0.82420
O846        O  0.36113096  0.70898557  0.57481849    -0.82540
O847        O  0.34365974  0.87797145  0.68149421    -0.82460
O848        O  0.36578680  0.74174360  0.68503258    -0.82450
O849        O  0.27960682  0.81054943  0.63713987    -0.82480
C850        C  0.27800076  0.84884508  0.64765828     1.07240
C851        C  0.38883038  0.71080636  0.67820784     1.07130
C852        C  0.32704154  0.70681754  0.59515619     1.07270
C853        C  0.33922988  0.85579686  0.71497054     1.07140
O854        O  0.40256105  0.90801443  0.64271009    -0.82450
O855        O  0.40663926  0.78256349  0.53966279    -0.82520
O856        O  0.30146751  0.85076630  0.56246047    -0.82460
O857        O  0.45238639  0.77371534  0.67149662    -0.82440
O858        O  0.45684594  0.78546684  0.60534219    -0.82490
O859        O  0.35147492  0.89516255  0.58070893    -0.82460
O860        O  0.42282798  0.85422302  0.68383240    -0.82420
O861        O  0.33833400  0.77782004  0.53157233    -0.82490
Co862      Co  0.37450816  0.85945587  0.62624734     1.51530
Co863      Co  0.40655722  0.75118047  0.59308216     1.51690
Co864      Co  0.31237983  0.79385944  0.58847688     1.51570
Co865      Co  0.39291541  0.79615166  0.68182100     1.51470
O866        O  0.36779542  0.79850438  0.62069465    -1.44380
C867        C  0.42568748  0.89296567  0.67122843     1.07170
C868        C  0.37522388  0.78323924  0.51610582     1.07260
C869        C  0.31744401  0.88755895  0.56198793     1.07200
C870        C  0.47495272  0.78044328  0.63956754     1.07170
O871        O  0.28654632  0.65595540  0.81926788    -0.82450
O872        O  0.37181318  0.69019426  0.74671858    -0.82470
O873        O  0.35768260  0.70662475  0.84453658    -0.82480
O874        O  0.35256064  0.58502565  0.71251385    -0.82420
O875        O  0.40823026  0.73807371  0.80721802    -0.82540
O876        O  0.31201208  0.63073074  0.74327404    -0.82460
O877        O  0.41345697  0.64679055  0.71323205    -0.82450
O878        O  0.31227923  0.65019162  0.88161718    -0.82480
C879        C  0.28204820  0.65979941  0.85834617     1.07240
C880        C  0.39114503  0.68011915  0.71350537     1.07130
C881        C  0.37509090  0.74025301  0.82944942     1.07270
C882        C  0.32005557  0.60831405  0.71239439     1.07140
O883        O  0.32527569  0.54366469  0.77453254    -0.82450
O884        O  0.43260001  0.67465047  0.85697998    -0.82520
O885        O  0.36852113  0.58454045  0.88371950    -0.82460
O886        O  0.45706340  0.60189956  0.78070764    -0.82440
O887        O  0.45564020  0.67104297  0.77651732    -0.82490
O888        O  0.30795340  0.57421701  0.85100448    -0.82460
O889        O  0.39445795  0.54067190  0.77944998    -0.82420
O890        O  0.38990201  0.66533504  0.91126455    -0.82490
Co891      Co  0.31119159  0.60283067  0.79639403     1.51530
Co892      Co  0.39793822  0.67941806  0.80136490     1.51690
Co893      Co  0.37093443  0.64331148  0.86007902     1.51570
Co894      Co  0.40311533  0.59489221  0.75050032     1.51470
O895        O  0.37114102  0.62224773  0.80078058    -1.44380
C896        C  0.35914082  0.52221808  0.77759265     1.07170
C897        C  0.42391511  0.67987187  0.89614414     1.07260
C898        C  0.33184275  0.56766585  0.88198614     1.07200
C899        C  0.47635968  0.63692177  0.77972344     1.07170
O900        O  0.20412114  0.72173832  0.64924361    -0.82450
O901        O  0.25393250  0.62677498  0.69110457    -0.82470
O902        O  0.16876306  0.65270657  0.70948507    -0.82480
O903        O  0.29673818  0.63652922  0.57995208    -0.82420
O904        O  0.18970623  0.59279022  0.73764052    -0.82540
O905        O  0.26986489  0.67741962  0.62567371    -0.82460
O906        O  0.28831138  0.58372011  0.64918225    -0.82450
O907        O  0.13840091  0.70309964  0.65133806    -0.82480
C908        C  0.16648661  0.73202591  0.65428460     1.07240
C909        C  0.28679644  0.60665350  0.68164764     1.07130
C910        C  0.17483909  0.62962569  0.74200287     1.07270
C911        C  0.29904647  0.67029906  0.60096734     1.07140
O912        O  0.23160674  0.66357653  0.54368976    -0.82450
O913        O  0.14294378  0.57232526  0.67081759    -0.82520
O914        O  0.12097988  0.63931116  0.59288063    -0.82460
O915        O  0.21719360  0.54144275  0.60820693    -0.82440
O916        O  0.22316789  0.54290123  0.67550618    -0.82490
O917        O  0.15911259  0.69545314  0.57432381    -0.82460
O918        O  0.22357541  0.59433410  0.54448949    -0.82420
O919        O  0.09600443  0.62339263  0.67610218    -0.82490
Co920      Co  0.21632547  0.68649964  0.59988071     1.51530
Co921      Co  0.19960966  0.60229504  0.67945483     1.51690
Co922      Co  0.14811663  0.63945266  0.64910402     1.51570
Co923      Co  0.25287171  0.59079507  0.59715070     1.51470
O924        O  0.20532123  0.62900706  0.62308601    -1.44380
C925        C  0.22544525  0.62863873  0.52515074     1.07170
C926        C  0.10646854  0.58494390  0.68280508     1.07260
C927        C  0.12501213  0.67379848  0.57231930     1.07200
C928        C  0.22041693  0.52190209  0.64206738     1.07170
O929        O  0.20242506  0.84323053  0.65611317    -0.82450
O930        O  0.08333038  0.85649314  0.79286934    -0.82470
O931        O  0.18977844  0.86770272  0.74756105    -0.82480
O932        O  0.11700205  0.77745171  0.67800174    -0.82420
O933        O  0.14970275  0.91049570  0.78454347    -0.82540
O934        O  0.17282982  0.81131423  0.65405151    -0.82460
O935        O  0.10999167  0.80429110  0.75542873    -0.82450
O936        O  0.23307815  0.90107152  0.68042501    -0.82480
C937        C  0.23666710  0.86530987  0.66256708     1.07240
C938        C  0.10007585  0.81994988  0.79006634     1.07130
C939        C  0.18241417  0.88729062  0.78115239     1.07270
C940        C  0.15289911  0.77643815  0.66286745     1.07140
O941        O  0.10723632  0.83468499  0.61301547    -0.82450
O942        O  0.10308415  0.95878374  0.72092849    -0.82520
O943        O  0.16200976  0.93303243  0.64320542    -0.82460
O944        O  0.03182202  0.83750928  0.73617562    -0.82440
O945        O  0.03588539  0.90524450  0.72816458    -0.82490
O946        O  0.16787530  0.88491365  0.59481110    -0.82460
O947        O  0.05057589  0.82831980  0.65246368    -0.82420
O948        O  0.17182262  0.95505923  0.72106345    -0.82490
Co949      Co  0.14301316  0.87037624  0.64770364     1.51530
Co950      Co  0.09387581  0.90633506  0.75328377     1.51690
Co951      Co  0.17401096  0.89584479  0.69544858     1.51570
Co952      Co  0.08057993  0.81667602  0.70520003     1.51470
O953        O  0.11582643  0.87078266  0.70430346    -1.44380
C954        C  0.06916311  0.82497259  0.61765355     1.07170
C955        C  0.13829427  0.97724601  0.71983216     1.07260
C956        C  0.16981712  0.92336762  0.60516829     1.07200
C957        C  0.01423356  0.87165447  0.72822921     1.07170
O958        O  0.23698924  0.68988982  0.91074026    -0.82450
O959        O  0.13092563  0.76119357  0.81674686    -0.82470
O960        O  0.15162245  0.62088589  0.81169234    -0.82480
O961        O  0.14629939  0.78535601  0.91556549    -0.82420
O962        O  0.15847634  0.68528904  0.78915460    -0.82540
O963        O  0.18953836  0.75115231  0.87395904    -0.82460
O964        O  0.08395089  0.78949920  0.85723922    -0.82450
O965        O  0.20765327  0.65666751  0.85757695    -0.82480
C966        C  0.24071685  0.66993052  0.87661464     1.07240
C967        C  0.10675266  0.79120654  0.82472050     1.07130
C968        C  0.16256136  0.64601538  0.78311862     1.07270
C969        C  0.17942373  0.78438915  0.89323071     1.07140
O970        O  0.17004796  0.72202654  0.95723941    -0.82450
O971        O  0.07680411  0.65006268  0.80900136    -0.82520
O972        O  0.16688983  0.58825138  0.88834625    -0.82460
O973        O  0.04132757  0.71933562  0.89596617    -0.82440
O974        O  0.04562422  0.72653806  0.82738479    -0.82490
O975        O  0.17001708  0.64174447  0.93299863    -0.82460
O976        O  0.10148113  0.71643233  0.95807498    -0.82420
O977        O  0.08645489  0.61648772  0.86922475    -0.82490
Co978      Co  0.17828804  0.69709293  0.89983968     1.51530
Co979      Co  0.10460493  0.70622269  0.81337874     1.51690
Co980      Co  0.14465945  0.64025544  0.87058672     1.51570
Co981      Co  0.09457097  0.74883912  0.90557510     1.51470
O982        O  0.12242569  0.69963887  0.87254702    -1.44380
C983        C  0.13583157  0.71878750  0.97760967     1.07170
C984        C  0.06943812  0.61881252  0.83320898     1.07260
C985        C  0.17775497  0.60311962  0.92345015     1.07200
C986        C  0.02389333  0.72228980  0.86066554     1.07170
O987        O  0.30958338  0.90875018  0.75978932    -0.82450
O988        O  0.24167566  0.81042721  0.86957405    -0.82470
O989        O  0.38010162  0.81140897  0.84873761    -0.82480
O990        O  0.21315279  0.90898824  0.84660971    -0.82420
O991        O  0.31735623  0.78441341  0.84583297    -0.82540
O992        O  0.24921248  0.86784252  0.80473120    -0.82460
O993        O  0.20945842  0.85233198  0.91237246    -0.82450
O994        O  0.34335552  0.85565589  0.78961025    -0.82480
C995        C  0.32978103  0.87458207  0.75629467     1.07240
C996        C  0.21010625  0.81856828  0.89102578     1.07130
C997        C  0.35656673  0.78080720  0.84049194     1.07270
C998        C  0.21558703  0.88695964  0.81332724     1.07140
O999        O  0.27522748  0.95456608  0.82324327    -0.82450
O1000       O  0.35025935  0.80963999  0.92523999    -0.82520
O1001       O  0.41043558  0.88755571  0.83164749    -0.82460
O1002       O  0.27529544  0.89854797  0.95523606    -0.82440
O1003       O  0.27299459  0.82877334  0.95509453    -0.82490
O1004       O  0.35637510  0.93201191  0.82697730    -0.82460
O1005       O  0.27818876  0.95735702  0.89118918    -0.82420
O1006       O  0.38289151  0.86999869  0.91104155    -0.82490
Co1007     Co  0.30194610  0.89684855  0.81796921     1.51530
Co1008     Co  0.29495905  0.81147721  0.89725750     1.51690
Co1009     Co  0.35868642  0.86979964  0.85299758     1.51570
Co1010     Co  0.24791391  0.90300197  0.90003747     1.51470
O1011       O  0.29910724  0.87052383  0.87492434    -1.44380
C1012       C  0.27779695  0.97621802  0.85635086     1.07170
C1013       C  0.38154780  0.83422598  0.92990057     1.07260
C1014       C  0.39560760  0.92320961  0.82154668     1.07200
C1015       C  0.27562978  0.86377135  0.97490666     1.07170
O1016       O  0.18726247  0.59942762  0.26444604    -0.82450
O1017       O  0.25012303  0.70041072  0.38630721    -0.82470
O1018       O  0.14048708  0.67983188  0.32495807    -0.82480
O1019       O  0.28272137  0.59042232  0.34979118    -0.82420
O1020       O  0.16841021  0.71915636  0.37457030    -0.82540
O1021       O  0.24788498  0.63592990  0.31205378    -0.82460
O1022       O  0.28601331  0.64713722  0.41380990    -0.82450
O1023       O  0.14975483  0.65024936  0.29582833    -0.82480
C1024       C  0.16456310  0.63202043  0.26174762     1.07240
C1025       C  0.28320277  0.68578878  0.40180670     1.07130
C1026       C  0.14783919  0.71600517  0.34151694     1.07270
C1027       C  0.27958452  0.61265657  0.31711007     1.07140
O1028       O  0.22115770  0.54844809  0.32369396    -0.82450
O1029       O  0.14926946  0.66920135  0.44644753    -0.82520
O1030       O  0.08768905  0.61080537  0.33650021    -0.82460
O1031       O  0.22216567  0.59579323  0.45879147    -0.82440
O1032       O  0.22962679  0.66410007  0.46290185    -0.82490
O1033       O  0.14083920  0.56783829  0.32566594    -0.82460
O1034       O  0.21846671  0.54180380  0.39168240    -0.82420
O1035       O  0.10553636  0.66063698  0.39498565    -0.82490
Co1036     Co  0.19472371  0.60643104  0.32200146     1.51530
Co1037     Co  0.19915248  0.68421555  0.41392004     1.51690
Co1038     Co  0.14069887  0.62469365  0.35796707     1.51570
Co1039     Co  0.24888354  0.59521061  0.40277269     1.51470
O1040       O  0.19889894  0.62891721  0.38050625    -1.44380
C1041       C  0.21893443  0.52511319  0.35575344     1.07170
C1042       C  0.11305917  0.67147516  0.43197015     1.07260
C1043       C  0.10144409  0.57667103  0.32232702     1.07200
C1044       C  0.22473053  0.62902095  0.48022051     1.07170
O1045       O  0.31565738  0.67329759  0.13638811    -0.82450
O1046       O  0.40144655  0.63938040  0.28158131    -0.82470
O1047       O  0.29182035  0.61522095  0.24623226    -0.82480
O1048       O  0.39468761  0.73203425  0.19207760    -0.82420
O1049       O  0.33983806  0.58208587  0.28353761    -0.82540
O1050       O  0.34564551  0.70285039  0.15123636    -0.82460
O1051       O  0.35655463  0.67913658  0.24861435    -0.82450
O1052       O  0.27493891  0.62430132  0.16431746    -0.82480
C1053       C  0.27925228  0.65699197  0.14278313     1.07240
C1054       C  0.38047634  0.67311417  0.27919561     1.07130
C1055       C  0.30623629  0.60412625  0.28100845     1.07270
C1056       C  0.36378592  0.73644687  0.16750113     1.07140
O1057       O  0.38811977  0.66611093  0.08958316    -0.82450
O1058       O  0.38777546  0.53216103  0.21981983    -0.82520
O1059       O  0.32037754  0.55049773  0.14726147    -0.82460
O1060       O  0.44335159  0.66289757  0.22172907    -0.82440
O1061       O  0.44536438  0.59337646  0.21733737    -0.82490
O1062       O  0.34062024  0.60112828  0.10390514    -0.82460
O1063       O  0.42773177  0.67435838  0.14438237    -0.82420
O1064       O  0.32026463  0.53074368  0.22812348    -0.82490
Co1065     Co  0.37100575  0.64072063  0.14048713     1.51530
Co1066     Co  0.39237087  0.58745915  0.24709041     1.51690
Co1067     Co  0.30613817  0.58354189  0.19667805     1.51570
Co1068     Co  0.38659312  0.67284020  0.19600898     1.51470
O1069       O  0.36303500  0.61382913  0.19655740    -1.44380
C1070       C  0.42078019  0.68116886  0.10548798     1.07170
C1071       C  0.35426513  0.51138581  0.22230108     1.07260
C1072       C  0.32598384  0.56473091  0.11105644     1.07200
C1073       C  0.46384379  0.62829123  0.22042266     1.07170
O1074       O  0.33601193  0.86832417  0.31903017    -0.82450
O1075       O  0.35166020  0.70490406  0.38948122    -0.82470
O1076       O  0.38228498  0.74458645  0.29006589    -0.82480
O1077       O  0.28386542  0.79630073  0.36643728    -0.82420
O1078       O  0.41426892  0.70550428  0.33699943    -0.82540
O1079       O  0.30287323  0.85789581  0.34788251    -0.82460
O1080       O  0.31238556  0.75077973  0.42471760    -0.82450
O1081       O  0.36983569  0.82566672  0.27551434    -0.82480
C1082       C  0.34524475  0.85599801  0.28141184     1.07240
C1083       C  0.31778049  0.71498947  0.40671121     1.07130
C1084       C  0.39155530  0.70903182  0.30459226     1.07270
C1085       C  0.27316410  0.83072159  0.35143019     1.07140
O1086       O  0.34041887  0.89507713  0.40874742    -0.82450
O1087       O  0.45870833  0.76547499  0.39325867    -0.82520
O1088       O  0.44394890  0.84601164  0.32121487    -0.82460
O1089       O  0.37456033  0.81551126  0.44743409    -0.82440
O1090       O  0.39335547  0.75007981  0.45176703    -0.82490
O1091       O  0.39789728  0.88930229  0.34907614    -0.82460
O1092       O  0.29854663  0.84585979  0.43700817    -0.82420
O1093       O  0.46339251  0.76417593  0.32533762    -0.82490
Co1094     Co  0.36055680  0.84772577  0.37688852     1.51530
Co1095     Co  0.40363395  0.73614767  0.39111656     1.51690
Co1096     Co  0.41174356  0.79482308  0.30699213     1.51570
Co1097     Co  0.33280501  0.80686653  0.40235610     1.51470
O1098       O  0.37635483  0.78723312  0.36018417    -1.44380
C1099       C  0.31082462  0.88485906  0.43368153     1.07170
C1100       C  0.48072580  0.76784204  0.36049496     1.07260
C1101       C  0.43057427  0.88274022  0.32781532     1.07200
C1102       C  0.38244666  0.78373252  0.46975251     1.07170
O1103       O  0.15178462  0.68704389  0.21358649    -0.82450
O1104       O  0.18606865  0.75586902  0.12682802    -0.82470
O1105       O  0.20538781  0.65724701  0.14196514    -0.82480
O1106       O  0.08219608  0.79018113  0.14614880    -0.82420
O1107       O  0.23721953  0.69627982  0.09321479    -0.82540
O1108       O  0.12833675  0.75909811  0.18437119    -0.82460
O1109       O  0.14328156  0.78847581  0.08443742    -0.82450
O1110       O  0.14793226  0.62289539  0.19045119    -0.82480
C1111       C  0.15515595  0.64818340  0.22003624     1.07240
C1112       C  0.17642837  0.78851908  0.10618010     1.07130
C1113       C  0.23937320  0.67271501  0.12523756     1.07270
C1114       C  0.10616095  0.79028013  0.17791912     1.07140
O1115       O  0.04109745  0.72678042  0.17177355    -0.82450
O1116       O  0.17411637  0.64260300  0.06935186    -0.82520
O1117       O  0.08355440  0.61599416  0.13374262    -0.82460
O1118       O  0.10041509  0.71897545  0.04283526    -0.82440
O1119       O  0.16927949  0.72342978  0.04421941    -0.82490
O1120       O  0.07138202  0.65070260  0.19275198    -0.82460
O1121       O  0.03956829  0.71984923  0.10352734    -0.82420
O1122       O  0.16439864  0.58848495  0.11294671    -0.82490
Co1123     Co  0.09970785  0.70644118  0.18735432     1.51530
Co1124     Co  0.17762500  0.70014391  0.10225290     1.51690
Co1125     Co  0.14200727  0.64076242  0.13060475     1.51570
Co1126     Co  0.09257436  0.75049266  0.09572806     1.51470
O1127       O  0.12027762  0.70031975  0.12827827    -1.44380
C1128       C  0.02076232  0.72045122  0.13819815     1.07170
C1129       C  0.17809760  0.60288594  0.07839619     1.07260
C1130       C  0.06561339  0.61856314  0.16964671     1.07200
C1131       C  0.13533191  0.71983899  0.02373919     1.07170
O1132       O  0.21801138  0.84416412  0.30423787    -0.82450
O1133       O  0.12830502  0.80983799  0.24369529    -0.82470
O1134       O  0.15053612  0.79013999  0.33839535    -0.82480
O1135       O  0.14491404  0.91639276  0.20884633    -0.82420
O1136       O  0.09751708  0.75916243  0.30535514    -0.82540
O1137       O  0.18461524  0.86970962  0.23726550    -0.82460
O1138       O  0.08456516  0.85354081  0.21317424    -0.82450
O1139       O  0.20141730  0.84889963  0.36913608    -0.82480
C1140       C  0.22874339  0.84036405  0.34129790     1.07240
C1141       C  0.10662124  0.82038459  0.21230798     1.07130
C1142       C  0.13131775  0.75635445  0.32591778     1.07270
C1143       C  0.17754457  0.89310824  0.20744385     1.07140
O1144       O  0.17263782  0.95576486  0.27118048    -0.82450
O1145       O  0.07645615  0.82476089  0.35772335    -0.82520
O1146       O  0.13682371  0.91126199  0.37955246    -0.82460
O1147       O  0.04371512  0.89356064  0.28312249    -0.82440
O1148       O  0.04681776  0.82448188  0.27874881    -0.82490
O1149       O  0.19633520  0.92512322  0.34606443    -0.82460
O1150       O  0.10386941  0.95695164  0.28034504    -0.82420
O1151       O  0.12436816  0.83077366  0.40818378    -0.82490
Co1152     Co  0.19004980  0.89729286  0.28954813     1.51530
Co1153     Co  0.10622130  0.81877063  0.29970420     1.51690
Co1154     Co  0.13856138  0.85307293  0.35557953     1.51570
Co1155     Co  0.09590903  0.90391740  0.25014069     1.51470
O1156       O  0.13153094  0.87599853  0.29745500    -1.44380
C1157       C  0.13857165  0.97598242  0.27680655     1.07170
C1158       C  0.08744308  0.82124339  0.39637622     1.07260
C1159       C  0.17178956  0.93081082  0.37746779     1.07200
C1160       C  0.02523113  0.85798008  0.28157541     1.07170
O1161       O  0.34227026  0.85733159  0.20737940    -0.82450
O1162       O  0.20838869  0.85627691  0.08397325    -0.82470
O1163       O  0.24513174  0.87479833  0.18849401    -0.82480
O1164       O  0.31072873  0.78651859  0.15268114    -0.82420
O1165       O  0.21257560  0.91755651  0.14533510    -0.82540
O1166       O  0.37502673  0.80881243  0.14900547    -0.82460
O1167       O  0.23856006  0.81507961  0.12842672    -0.82450
O1168       O  0.30697503  0.90827238  0.23908054    -0.82480
C1169       C  0.32957305  0.87531566  0.24156286     1.07240
C1170       C  0.20758072  0.82301142  0.10663447     1.07130
C1171       C  0.21253958  0.89508582  0.17797925     1.07270
C1172       C  0.34920995  0.77931895  0.15686474     1.07140
O1173       O  0.38129129  0.87066468  0.08640646    -0.82450
O1174       O  0.28149965  0.95983817  0.10352482    -0.82520
O1175       O  0.35687370  0.93222955  0.17265472    -0.82460
O1176       O  0.27167868  0.83022907  0.04245193    -0.82440
O1177       O  0.27809108  0.89946394  0.04034431    -0.82490
O1178       O  0.41001544  0.88694025  0.16542750    -0.82460
O1179       O  0.34819774  0.81041147  0.07326919    -0.82420
O1180       O  0.27726794  0.95852718  0.17200610    -0.82490
Co1181     Co  0.35758567  0.87007093  0.14427490     1.51530
Co1182     Co  0.24909490  0.90678625  0.09460863     1.51690
Co1183     Co  0.30034032  0.89939830  0.17928146     1.51570
Co1184     Co  0.29197228  0.81392306  0.10082627     1.51470
O1185       O  0.29818116  0.87315087  0.12239012    -1.44380
C1186       C  0.37973940  0.83490916  0.06808120     1.07170
C1187       C  0.28038209  0.97932813  0.13814914     1.07260
C1188       C  0.39608280  0.92278853  0.17664962     1.07200
C1189       C  0.27604047  0.86438125  0.02157284     1.07170
O1190       O  0.87317919  0.64960927  0.31327135    -0.82450
O1191       O  0.70806710  0.65129456  0.38923762    -0.82470
O1192       O  0.73749617  0.63010344  0.29687630    -0.82480
O1193       O  0.81533047  0.71473985  0.35704098    -0.82420
O1194       O  0.70483483  0.58539102  0.33677258    -0.82540
O1195       O  0.87423424  0.68404204  0.34578669    -0.82460
O1196       O  0.75769055  0.69450500  0.41487661    -0.82450
O1197       O  0.81381531  0.65144370  0.27795812    -0.82480
C1198       C  0.85300334  0.65472779  0.27807427     1.07240
C1199       C  0.72014321  0.68693135  0.40218524     1.07130
C1200       C  0.70503442  0.61038300  0.30617957     1.07270
C1201       C  0.85304655  0.71822143  0.34558926     1.07140
O1202       O  0.89796045  0.65003352  0.40901508    -0.82450
O1203       O  0.76621956  0.54278626  0.38650250    -0.82520
O1204       O  0.84435372  0.57048004  0.29781744    -0.82460
O1205       O  0.81403934  0.62774464  0.44589385    -0.82440
O1206       O  0.74989702  0.60538413  0.44853195    -0.82490
O1207       O  0.88392372  0.58254398  0.35330526    -0.82460
O1208       O  0.85187825  0.69849330  0.43254943    -0.82420
O1209       O  0.76706614  0.54288692  0.31719598    -0.82490
Co1210     Co  0.85069155  0.63115176  0.37454529     1.51530
Co1211     Co  0.73745850  0.59739180  0.38842393     1.51690
Co1212     Co  0.79005331  0.60042398  0.30050074     1.51570
Co1213     Co  0.81247145  0.66736072  0.39753457     1.51470
O1214       O  0.78961438  0.62370563  0.35831074    -1.44380
C1215       C  0.88919303  0.68222541  0.43206403     1.07170
C1216       C  0.77006279  0.52349606  0.35204152     1.07260
C1217       C  0.87797146  0.56551927  0.31803831     1.07200
C1218       C  0.78193574  0.61831145  0.46699268     1.07170
O1219       O  0.66010931  0.81042030  0.28773061    -0.82450
O1220       O  0.69924673  0.75350278  0.37931287    -0.82470
O1221       O  0.70796215  0.84548287  0.35697913    -0.82480
O1222       O  0.58839045  0.70605273  0.36003181    -0.82420
O1223       O  0.73771596  0.82004680  0.41417135    -0.82540
O1224       O  0.63415012  0.73399141  0.31843084    -0.82460
O1225       O  0.65358763  0.71744795  0.41737904    -0.82450
O1226       O  0.65149947  0.87540189  0.30845009    -0.82480
C1227       C  0.66333353  0.84967835  0.28078998     1.07240
C1228       C  0.68952626  0.72096493  0.39976167     1.07130
C1229       C  0.74108119  0.83586805  0.37788618     1.07270
C1230       C  0.60888766  0.70452593  0.32603022     1.07140
O1231       O  0.54858839  0.76811431  0.32939441    -0.82450
O1232       O  0.66708913  0.86377531  0.43141084    -0.82520
O1233       O  0.58490773  0.87976319  0.36479996    -0.82460
O1234       O  0.60384580  0.78376386  0.45808914    -0.82440
O1235       O  0.67247818  0.78341813  0.45920316    -0.82490
O1236       O  0.57752077  0.84421524  0.30549464    -0.82460
O1237       O  0.54389425  0.77492795  0.39800972    -0.82420
O1238       O  0.66406741  0.91401015  0.38361891    -0.82490
Co1239     Co  0.60696938  0.78893921  0.31317858     1.51530
Co1240     Co  0.68061180  0.80737265  0.40148705     1.51690
Co1241     Co  0.64428969  0.85938231  0.36824203     1.51570
Co1242     Co  0.59913409  0.74932942  0.40684992     1.51470
O1243       O  0.62525347  0.79869511  0.37214229    -1.44380
C1244       C  0.52671324  0.77143691  0.36277312     1.07170
C1245       C  0.67524979  0.90189442  0.41967132     1.07260
C1246       C  0.56847474  0.87575631  0.32861206     1.07200
C1247       C  0.63757000  0.78352263  0.47849085     1.07170
O1248       O  0.72486711  0.60244986  0.18299808    -0.82450
O1249       O  0.60507809  0.69573755  0.25533028    -0.82470
O1250       O  0.66583640  0.69032343  0.15262387    -0.82480
O1251       O  0.64059329  0.58746470  0.27987488    -0.82420
O1252       O  0.61105340  0.72455919  0.17805267    -0.82540
O1253       O  0.67654712  0.63547408  0.24540780    -0.82460
O1254       O  0.57787972  0.64259745  0.29111448    -0.82450
O1255       O  0.69562459  0.65997321  0.15639045    -0.82480
C1256       C  0.72939898  0.63827780  0.16586909     1.07240
C1257       C  0.59689877  0.67842723  0.28972858     1.07130
C1258       C  0.64634117  0.72502797  0.16165868     1.07270
C1259       C  0.67135177  0.61256831  0.27710316     1.07140
O1260       O  0.66522777  0.54775449  0.21748266    -0.82450
O1261       O  0.54323956  0.67758235  0.15179419    -0.82520
O1262       O  0.66295712  0.62098707  0.09204358    -0.82460
O1263       O  0.52994911  0.59506297  0.22468984    -0.82440
O1264       O  0.52609358  0.66261006  0.23540076    -0.82490
O1265       O  0.65952118  0.57121415  0.13925842    -0.82460
O1266       O  0.59669693  0.54093838  0.21650027    -0.82420
O1267       O  0.59890893  0.66955881  0.11079371    -0.82490
Co1268     Co  0.66594159  0.60725674  0.19299874     1.51530
Co1269     Co  0.57429922  0.68540219  0.20482866     1.51690
Co1270     Co  0.63579366  0.63254407  0.14429384     1.51570
Co1271     Co  0.58661845  0.59316335  0.24949868     1.51470
O1272       O  0.60730927  0.62994205  0.20019771    -1.44380
C1273       C  0.63285976  0.52406095  0.21629581     1.07170
C1274       C  0.56140360  0.68144038  0.11664642     1.07260
C1275       C  0.66912868  0.58294187  0.10211333     1.07200
C1276       C  0.50875349  0.62853242  0.22620881     1.07170
O1277       O  0.69277864  0.90152762  0.23538610    -0.82450
O1278       O  0.76451936  0.81491188  0.12195806    -0.82470
O1279       O  0.63351027  0.79740473  0.14709090    -0.82480
O1280       O  0.78920747  0.91119165  0.14593330    -0.82420
O1281       O  0.69826385  0.77725948  0.14657820    -0.82540
O1282       O  0.75592336  0.86714524  0.18790975    -0.82460
O1283       O  0.79390967  0.85767885  0.07827482    -0.82450
O1284       O  0.66677324  0.84380403  0.20679798    -0.82480
C1285       C  0.67555563  0.86568656  0.23951756     1.07240
C1286       C  0.79546176  0.82482469  0.10060576     1.07130
C1287       C  0.66055432  0.76820299  0.15158418     1.07270
C1288       C  0.78863530  0.88802551  0.17862215     1.07140
O1289       O  0.72474402  0.95045226  0.17302938    -0.82450
O1290       O  0.65340983  0.80585386  0.07106572    -0.82520
O1291       O  0.59504682  0.87374752  0.17242960    -0.82460
O1292       O  0.72252763  0.89857496  0.04001923    -0.82440
O1293       O  0.72920806  0.82924739  0.03927237    -0.82490
O1294       O  0.64441712  0.92337626  0.16999689    -0.82460
O1295       O  0.71844741  0.95514220  0.10545633    -0.82420
O1296       O  0.62021705  0.86442761  0.09056119    -0.82490
Co1297     Co  0.70091592  0.89192677  0.17719396     1.51530
Co1298     Co  0.71145603  0.80985507  0.09617971     1.51690
Co1299     Co  0.64701727  0.85987577  0.14637851     1.51570
Co1300     Co  0.75226356  0.90419403  0.09375533     1.51470
O1301       O  0.70449715  0.86728125  0.12021725    -1.44380
C1302       C  0.72146074  0.97283491  0.14057058     1.07170
C1303       C  0.62107380  0.83016751  0.06976232     1.07260
C1304       C  0.60683986  0.91152168  0.17961315     1.07200
C1305       C  0.72339108  0.86384950  0.02036066     1.07170
O1306       O  0.85191749  0.65378911  0.20385991    -0.82450
O1307       O  0.86041300  0.79156437  0.07990898    -0.82470
O1308       O  0.86882036  0.74586622  0.19237634    -0.82480
O1309       O  0.78021075  0.69186572  0.14994992    -0.82420
O1310       O  0.91034376  0.78229199  0.15016443    -0.82540
O1311       O  0.80059253  0.62609146  0.14718199    -0.82460
O1312       O  0.81941419  0.76284286  0.12523271    -0.82450
O1313       O  0.90835961  0.68129003  0.23297952    -0.82480
C1314       C  0.87297333  0.66358745  0.23699774     1.07240
C1315       C  0.82801402  0.79344247  0.10228803     1.07130
C1316       C  0.88889783  0.77920302  0.18423753     1.07270
C1317       C  0.77219461  0.65306841  0.15498496     1.07140
O1318       O  0.85746989  0.61736318  0.08148425    -0.82450
O1319       O  0.95556914  0.71376867  0.10399168    -0.82520
O1320       O  0.92649100  0.63934235  0.15976797    -0.82460
O1321       O  0.82971883  0.72802611  0.04014054    -0.82440
O1322       O  0.89914110  0.72161397  0.03959178    -0.82490
O1323       O  0.87971336  0.58678093  0.15985777    -0.82460
O1324       O  0.79924753  0.65417781  0.07066995    -0.82420
O1325       O  0.95294949  0.71931558  0.17131749    -0.82490
Co1326     Co  0.86185381  0.63994779  0.13995452     1.51530
Co1327     Co  0.90490466  0.74850639  0.09486508     1.51690
Co1328     Co  0.89500268  0.69330418  0.17526660     1.51570
Co1329     Co  0.80981911  0.70979552  0.09808348     1.51470
O1330       O  0.86767951  0.69994475  0.11940986    -1.44380
C1331       C  0.82123267  0.62114157  0.06451774     1.07170
C1332       C  0.97449469  0.71713847  0.13818389     1.07260
C1333       C  0.91657190  0.60082487  0.16738316     1.07200
C1334       C  0.86439915  0.72327377  0.02033150     1.07170
O1335       O  0.90757668  0.75975674  0.31470936    -0.82450
O1336       O  0.81376183  0.86673455  0.24237754    -0.82470
O1337       O  0.81280930  0.85330412  0.38204354    -0.82480
O1338       O  0.91369627  0.84360708  0.21535150    -0.82420
O1339       O  0.78628387  0.84700328  0.31974228    -0.82540
O1340       O  0.87146594  0.80301262  0.25173844    -0.82460
O1341       O  0.85645750  0.90858607  0.20925990    -0.82450
O1342       O  0.85707638  0.79358710  0.34922707    -0.82480
C1343       C  0.87333048  0.75886733  0.33522170     1.07240
C1344       C  0.82241845  0.88716519  0.21015901     1.07130
C1345       C  0.78216612  0.84451006  0.35901056     1.07270
C1346       C  0.89061350  0.81097477  0.21793967     1.07140
O1347       O  0.95744913  0.82262740  0.27935553    -0.82450
O1348       O  0.80948049  0.92925283  0.34802091    -0.82520
O1349       O  0.89128630  0.83967859  0.41345485    -0.82460
O1350       O  0.90466546  0.95178726  0.27498000    -0.82440
O1351       O  0.83540185  0.95294264  0.27082505    -0.82490
O1352       O  0.93363200  0.82865517  0.35900782    -0.82460
O1353       O  0.95953581  0.89129787  0.27970269    -0.82420
O1354       O  0.86874226  0.91836172  0.38224029    -0.82490
Co1355     Co  0.89876642  0.81811164  0.30484954     1.51530
Co1356     Co  0.81436409  0.89726347  0.29458659     1.51690
Co1357     Co  0.87143571  0.85804727  0.36113285     1.51570
Co1358     Co  0.90683282  0.89759664  0.24868543     1.51470
O1359       O  0.87307774  0.87525726  0.30051023    -1.44380
C1360       C  0.97865280  0.85674091  0.28069648     1.07170
C1361       C  0.83244288  0.93610276  0.37961154     1.07260
C1362       C  0.92636376  0.82751191  0.39869964     1.07200
C1363       C  0.87103297  0.97164499  0.27412284     1.07170
O1364       O  0.14963738  0.36013394  0.28927642    -0.82450
O1365       O  0.29190569  0.36186061  0.40961848    -0.82470
O1366       O  0.24520713  0.36987972  0.30021500    -0.82480
O1367       O  0.18837618  0.28780453  0.34155571    -0.82420
O1368       O  0.28221354  0.41206864  0.34042495    -0.82540
O1369       O  0.12369498  0.31076760  0.34783817    -0.82460
O1370       O  0.26385785  0.31893272  0.36583723    -0.82450
O1371       O  0.18539651  0.40998135  0.25595601    -0.82480
C1372       C  0.16317054  0.37682145  0.25454561     1.07240
C1373       C  0.29340163  0.32726471  0.38994994     1.07130
C1374       C  0.27955694  0.38677497  0.30953161     1.07270
C1375       C  0.14919666  0.28197810  0.33774012     1.07140
O1376       O  0.11959678  0.36601952  0.41439363    -0.82450
O1377       O  0.21535997  0.45873128  0.38653088    -0.82520
O1378       O  0.13898631  0.43369591  0.32566395    -0.82460
O1379       O  0.22899334  0.33608380  0.45001544    -0.82440
O1380       O  0.22332508  0.40584796  0.44960298    -0.82490
O1381       O  0.08575715  0.38886971  0.33746450    -0.82460
O1382       O  0.15494836  0.30628986  0.42231244    -0.82420
O1383       O  0.22084363  0.45783796  0.31917367    -0.82490
Co1384     Co  0.13941966  0.37112321  0.35445738     1.51530
Co1385     Co  0.24959429  0.40847999  0.39498365     1.51690
Co1386     Co  0.19400109  0.39936782  0.31463238     1.51570
Co1387     Co  0.20943376  0.31496408  0.39305045     1.51470
O1388       O  0.19988793  0.37325959  0.37151799    -1.44380
C1389       C  0.12355678  0.32930120  0.43118769     1.07170
C1390       C  0.21798054  0.47861184  0.35296070     1.07260
C1391       C  0.09938321  0.42431172  0.32414714     1.07200
C1392       C  0.22610445  0.37164314  0.46913628     1.07170
O1393       O  0.33380937  0.30302366  0.15024299    -0.82450
O1394       O  0.34675916  0.40356644  0.28378865    -0.82470
O1395       O  0.38179233  0.29726463  0.25788976    -0.82480
O1396       O  0.26522088  0.38343737  0.18159307    -0.82420
O1397       O  0.40996879  0.34891731  0.29439067    -0.82540
O1398       O  0.30247774  0.33261435  0.15045007    -0.82460
O1399       O  0.30953152  0.35605932  0.24998847    -0.82450
O1400       O  0.38238327  0.26642903  0.18376865    -0.82480
C1401       C  0.35026122  0.26749891  0.16282006     1.07240
C1402       C  0.31451419  0.38020913  0.28104624     1.07130
C1403       C  0.39180779  0.31284074  0.29211398     1.07270
C1404       C  0.26648689  0.35099018  0.15801899     1.07140
O1405       O  0.33881112  0.37613965  0.09302003    -0.82450
O1406       O  0.45880959  0.39675123  0.22914694    -0.82520
O1407       O  0.45032584  0.31581241  0.15836767    -0.82460
O1408       O  0.32328425  0.44205915  0.22038826    -0.82440
O1409       O  0.39216755  0.44856290  0.21979577    -0.82490
O1410       O  0.39882998  0.33065072  0.11470388    -0.82460
O1411       O  0.32960553  0.42130813  0.14336136    -0.82420
O1412       O  0.46249928  0.32984558  0.24199021    -0.82490
Co1413     Co  0.36051234  0.36354874  0.14735907     1.51530
Co1414     Co  0.40171616  0.39811893  0.25365339     1.51690
Co1415     Co  0.41611756  0.30712422  0.20989914     1.51570
Co1416     Co  0.32301019  0.38259894  0.19640987     1.51470
O1417       O  0.38218068  0.36176324  0.20493302    -1.44380
C1418       C  0.32660512  0.41199687  0.10451126     1.07170
C1419       C  0.47997604  0.36340283  0.23162199     1.07260
C1420       C  0.43524827  0.31821288  0.12188170     1.07200
C1421       C  0.35620409  0.46523876  0.22023719     1.07170
O1422       O  0.38853335  0.18559052  0.27070216    -0.82450
O1423       O  0.30429543  0.25617966  0.39212615    -0.82470
O1424       O  0.31153164  0.14895372  0.33692513    -0.82480
O1425       O  0.41276745  0.28490095  0.35658729    -0.82420
O1426       O  0.27641456  0.17753744  0.38926776    -0.82540
O1427       O  0.36347087  0.25229965  0.32151939    -0.82460
O1428       O  0.35654500  0.29409717  0.41817701    -0.82450
O1429       O  0.33965806  0.15103907  0.30733345    -0.82480
C1430       C  0.35579223  0.16192495  0.27132547     1.07240
C1431       C  0.32057145  0.29147401  0.40041415     1.07130
C1432       C  0.27649876  0.15935825  0.35541816     1.07270
C1433       C  0.38727922  0.28391433  0.32659174     1.07140
O1434       O  0.45190018  0.22082979  0.33143522    -0.82450
O1435       O  0.32585009  0.15197799  0.45438159    -0.82520
O1436       O  0.38607181  0.09197084  0.33897008    -0.82460
O1437       O  0.40395796  0.22746730  0.46601694    -0.82440
O1438       O  0.33691418  0.23839707  0.46876251    -0.82490
O1439       O  0.42974318  0.14493652  0.33269936    -0.82460
O1440       O  0.45763915  0.21938893  0.39992865    -0.82420
O1441       O  0.33776851  0.10991493  0.40057034    -0.82490
Co1442     Co  0.39093586  0.19787744  0.32975015     1.51530
Co1443     Co  0.31588096  0.20553560  0.42293785     1.51690
Co1444     Co  0.37179688  0.14509257  0.36396889     1.51570
Co1445     Co  0.40623687  0.25285085  0.40979624     1.51470
O1446       O  0.37054405  0.20272514  0.38895984    -1.44380
C1447       C  0.47498045  0.21871150  0.36428194     1.07170
C1448       C  0.32444036  0.11589359  0.43692393     1.07260
C1449       C  0.42181630  0.10554097  0.32824372     1.07200
C1450       C  0.37035945  0.23025107  0.48654364     1.07170
O1451       O  0.20372795  0.14595391  0.36728499    -0.82450
O1452       O  0.08713831  0.14703131  0.21416936    -0.82470
O1453       O  0.18789308  0.13001487  0.23717965    -0.82480
O1454       O  0.09670769  0.23627723  0.31134743    -0.82420
O1455       O  0.14687644  0.08526141  0.20735492    -0.82540
O1456       O  0.15503532  0.20741264  0.33596352    -0.82460
O1457       O  0.12970434  0.19054601  0.24673229    -0.82450
O1458       O  0.22458476  0.14850420  0.30333322    -0.82480
C1459       C  0.23340637  0.15065575  0.34087472     1.07240
C1460       C  0.10806332  0.18095519  0.21507503     1.07130
C1461       C  0.17926907  0.10923218  0.20619660     1.07270
C1462       C  0.13286472  0.24033509  0.32719272     1.07140
O1463       O  0.12755575  0.16864945  0.40716200    -0.82450
O1464       O  0.10442014  0.04156629  0.27794797    -0.82520
O1465       O  0.19650325  0.06963513  0.34262536    -0.82460
O1466       O  0.04767714  0.17355769  0.27978433    -0.82440
O1467       O  0.04520908  0.10454649  0.28198585    -0.82490
O1468       O  0.13845808  0.08730232  0.37755278    -0.82460
O1469       O  0.07724856  0.16901630  0.35951587    -0.82420
O1470       O  0.17263661  0.04188458  0.26712286    -0.82490
Co1471     Co  0.14129716  0.14524043  0.35408531     1.51530
Co1472     Co  0.09766675  0.09552938  0.24898699     1.51690
Co1473     Co  0.19189586  0.09894835  0.28745356     1.51570
Co1474     Co  0.10683518  0.17807743  0.30205144     1.51470
O1475       O  0.13373203  0.12167619  0.29650910    -1.44380
C1476       C  0.08977839  0.17672158  0.39701102     1.07170
C1477       C  0.13876123  0.02214889  0.27509273     1.07260
C1478       C  0.17301587  0.06708820  0.37507493     1.07200
C1479       C  0.02627530  0.13982584  0.28088982     1.07170
O1480       O  0.31194805  0.11314845  0.23323779    -0.82450
O1481       O  0.24317439  0.19796980  0.11352141    -0.82470
O1482       O  0.34823093  0.19012142  0.16538064    -0.82480
O1483       O  0.21293954  0.08529418  0.14461808    -0.82420
O1484       O  0.31910679  0.22672847  0.11433140    -0.82540
O1485       O  0.24391146  0.13430560  0.18175816    -0.82460
O1486       O  0.20560849  0.14636466  0.08608518    -0.82450
O1487       O  0.34727483  0.16170409  0.19643457    -0.82480
C1488       C  0.33687872  0.14511643  0.23242002     1.07240
C1489       C  0.20821263  0.18263224  0.10421264     1.07130
C1490       C  0.33700844  0.22569880  0.14805409     1.07270
C1491       C  0.21241476  0.11044698  0.17485867     1.07140
O1492       O  0.27868656  0.04879618  0.17085152    -0.82450
O1493       O  0.34591112  0.17502715  0.04935434    -0.82520
O1494       O  0.40675836  0.11724701  0.16452859    -0.82460
O1495       O  0.27214245  0.09900284  0.03649584    -0.82440
O1496       O  0.26018147  0.16610835  0.03405850    -0.82490
O1497       O  0.35555037  0.07270745  0.17465669    -0.82460
O1498       O  0.27968224  0.04383355  0.10189939    -0.82420
O1499       O  0.38806017  0.16176854  0.10241735    -0.82490
Co1500     Co  0.30025233  0.10988445  0.17439803     1.51530
Co1501     Co  0.29275868  0.18563298  0.08141121     1.51690
Co1502     Co  0.35301979  0.12925482  0.13975025     1.51570
Co1503     Co  0.24623185  0.09522718  0.09272957     1.51470
O1504       O  0.29577987  0.13041502  0.11505921    -1.44380
C1505       C  0.28034927  0.02627878  0.13747711     1.07170
C1506       C  0.38227793  0.17374446  0.06575996     1.07260
C1507       C  0.39474480  0.08219819  0.17863797     1.07200
C1508       C  0.26818057  0.13249371  0.01581103     1.07170
O1509       O  0.16128449  0.36773620  0.17757441    -0.82450
O1510       O  0.14094636  0.21153714  0.08790554    -0.82470
O1511       O  0.11698523  0.24856411  0.19456667    -0.82480
O1512       O  0.23003961  0.30788966  0.10903041    -0.82420
O1513       O  0.08225373  0.20929795  0.14968702    -0.82540
O1514       O  0.19201851  0.35232986  0.14917583    -0.82460
O1515       O  0.17871034  0.24315141  0.13497552    -0.82450
O1516       O  0.12288605  0.32789535  0.21972101    -0.82480
C1517       C  0.14904470  0.35687612  0.21473493     1.07240
C1518       C  0.17294477  0.21186773  0.11103904     1.07130
C1519       C  0.10315469  0.21343835  0.18358698     1.07270
C1520       C  0.22807084  0.33575711  0.13792278     1.07140
O1521       O  0.15443634  0.40871160  0.10005211    -0.82450
O1522       O  0.03288225  0.27338646  0.10210361    -0.82520
O1523       O  0.04825026  0.34794523  0.17949032    -0.82460
O1524       O  0.16664508  0.27551100  0.04818062    -0.82440
O1525       O  0.09724598  0.27688942  0.04363405    -0.82490
O1526       O  0.09429760  0.39279420  0.15239288    -0.82460
O1527       O  0.17349494  0.35067391  0.06764888    -0.82420
O1528       O  0.03186929  0.26516253  0.16952017    -0.82490
Co1529     Co  0.13263117  0.35690476  0.11979716     1.51530
Co1530     Co  0.08875411  0.24653630  0.09720153     1.51690
Co1531     Co  0.08303052  0.29716105  0.18608375     1.51570
Co1532     Co  0.17139082  0.29856969  0.10802854     1.51470
O1533       O  0.11190496  0.29851479  0.12869742    -1.44380
C1534       C  0.17391503  0.39109036  0.07065793     1.07170
C1535       C  0.01262675  0.27140458  0.13595952     1.07260
C1536       C  0.06162743  0.38497548  0.17335214     1.07200
C1537       C  0.13312664  0.27776668  0.02595468     1.07170
O1538       O  0.65403062  0.28035816  0.19460532    -0.82450
O1539       O  0.68885979  0.37307315  0.25311005    -0.82470
O1540       O  0.70663388  0.35039124  0.16172803    -0.82480
O1541       O  0.58350161  0.35542987  0.29141447    -0.82420
O1542       O  0.73733154  0.40588102  0.19140024    -0.82540
O1543       O  0.62954508  0.31538472  0.26233701    -0.82460
O1544       O  0.64572538  0.41606590  0.28533464    -0.82450
O1545       O  0.65073697  0.29712460  0.12951902    -0.82480
C1546       C  0.65756216  0.26921263  0.15745985     1.07240
C1547       C  0.67815609  0.39308928  0.28548946     1.07130
C1548       C  0.74012989  0.37020387  0.17345040     1.07270
C1549       C  0.60631125  0.32238356  0.29244101     1.07140
O1550       O  0.54443332  0.32821862  0.22914052    -0.82450
O1551       O  0.66966749  0.42698654  0.14162353    -0.82520
O1552       O  0.58721461  0.35917846  0.11816990    -0.82460
O1553       O  0.60194304  0.45636923  0.21596415    -0.82440
O1554       O  0.67032788  0.45701483  0.21985516    -0.82490
O1555       O  0.57375717  0.30075518  0.15398002    -0.82460
O1556       O  0.54308076  0.39726198  0.22011847    -0.82420
O1557       O  0.66780296  0.37879801  0.09113426    -0.82490
Co1558     Co  0.60172117  0.30932873  0.21011990     1.51530
Co1559     Co  0.67793267  0.39667071  0.19832252     1.51690
Co1560     Co  0.64483848  0.36060194  0.14312502     1.51570
Co1561     Co  0.59499822  0.40450781  0.24949322     1.51470
O1562       O  0.62190604  0.36867781  0.20128077    -1.44380
C1563       C  0.52459497  0.36289131  0.22530009     1.07170
C1564       C  0.67471661  0.41661833  0.10308167     1.07260
C1565       C  0.56870248  0.32343394  0.12122163     1.07200
C1566       C  0.63575592  0.47704546  0.21677994     1.07170
O1567       O  0.65309122  0.16420652  0.29475415    -0.82450
O1568       O  0.63898816  0.29671947  0.42135118    -0.82470
O1569       O  0.62392181  0.25415871  0.31116560    -0.82480
O1570       O  0.72421075  0.20543340  0.35360603    -0.82420
O1571       O  0.58263803  0.28787222  0.35557755    -0.82540
O1572       O  0.70699355  0.13907559  0.35350144    -0.82460
O1573       O  0.67653168  0.26841725  0.37430175    -0.82450
O1574       O  0.59427509  0.18622835  0.26598750    -0.82480
C1575       C  0.63086632  0.17096930  0.26161228     1.07240
C1576       C  0.67105579  0.29853112  0.39773841     1.07130
C1577       C  0.60410479  0.28714870  0.32207790     1.07270
C1578       C  0.73525140  0.16777877  0.34944598     1.07140
O1579       O  0.64671573  0.12224162  0.41547187    -0.82450
O1580       O  0.54159562  0.21689529  0.39774936    -0.82520
O1581       O  0.57690441  0.13936713  0.33653903    -0.82460
O1582       O  0.66774339  0.23354200  0.46118293    -0.82440
O1583       O  0.59919636  0.22326974  0.46140320    -0.82490
O1584       O  0.62868263  0.09238642  0.33527739    -0.82460
O1585       O  0.70226658  0.16185642  0.43084454    -0.82420
O1586       O  0.54334968  0.21882417  0.32969682    -0.82490
Co1587     Co  0.64333156  0.14671026  0.35763016     1.51530
Co1588     Co  0.59262945  0.25227518  0.40747746     1.51690
Co1589     Co  0.60366807  0.19779033  0.32484255     1.51570
Co1590     Co  0.68928239  0.21751388  0.40334242     1.51470
O1591       O  0.63138143  0.20494746  0.38087368    -1.44380
C1592       C  0.68175374  0.12726241  0.43450363     1.07170
C1593       C  0.52213828  0.21755742  0.36333051     1.07260
C1594       C  0.59010644  0.10167637  0.32895316     1.07200
C1595       C  0.63353689  0.22596327  0.48077116     1.07170
O1596       O  0.81085824  0.34604980  0.28272975    -0.82450
O1597       O  0.73891587  0.31317344  0.37897113    -0.82470
O1598       O  0.87278554  0.31327134  0.34561523    -0.82480
O1599       O  0.70805818  0.41533155  0.35169847    -0.82420
O1600       O  0.81111507  0.28395954  0.34993445    -0.82540
O1601       O  0.73719410  0.36665044  0.31423808    -0.82460
O1602       O  0.71007544  0.36125315  0.41860093    -0.82450
O1603       O  0.87345754  0.35260918  0.31119864    -0.82480
C1604       C  0.84999498  0.34538016  0.27853376     1.07240
C1605       C  0.70763962  0.32663498  0.39915562     1.07130
C1606       C  0.84926128  0.28090046  0.34122285     1.07270
C1607       C  0.70697340  0.39044472  0.32047527     1.07140
O1608       O  0.76682029  0.45517708  0.32095906    -0.82450
O1609       O  0.85760911  0.31584703  0.42335639    -0.82520
O1610       O  0.87975509  0.42466246  0.35541636    -0.82460
O1611       O  0.78291958  0.40563827  0.45238837    -0.82440
O1612       O  0.77805028  0.33681460  0.45455950    -0.82490
O1613       O  0.84281398  0.42758938  0.29723019    -0.82460
O1614       O  0.78155443  0.45983784  0.38724236    -0.82420
O1615       O  0.90927546  0.35801508  0.39890356    -0.82490
Co1616     Co  0.78898859  0.39669869  0.30736492     1.51530
Co1617     Co  0.79598412  0.31736575  0.39840260     1.51690
Co1618     Co  0.85716421  0.36967306  0.37413569     1.51570
Co1619     Co  0.74976631  0.40873255  0.40055597     1.51470
O1620       O  0.79654230  0.37518867  0.36694083    -1.44380
C1621       C  0.77423359  0.47741442  0.35299556     1.07170
C1622       C  0.89664069  0.32898874  0.42355127     1.07260
C1623       C  0.87522340  0.43691901  0.31824706     1.07200
C1624       C  0.78054334  0.37183892  0.47297444     1.07170
O1625       O  0.62941111  0.15662838  0.18540491    -0.82450
O1626       O  0.79140777  0.14307693  0.10650774    -0.82470
O1627       O  0.76208657  0.12580512  0.19275000    -0.82480
O1628       O  0.70002888  0.21222172  0.13260736    -0.82420
O1629       O  0.79230161  0.07653116  0.15728984    -0.82540
O1630       O  0.63824190  0.19457896  0.15086787    -0.82460
O1631       O  0.74389244  0.18206391  0.07318762    -0.81250
O1632       O  0.68853235  0.15022092  0.22047695    -0.82480
C1633       C  0.65001820  0.15926644  0.22026385     1.07240
C1634       C  0.77957964  0.17738433  0.09071756     1.07130
C1635       C  0.79280823  0.10266923  0.18657256     1.07270
C1636       C  0.66584717  0.22384189  0.14739634     1.07140
O1637       O  0.60144021  0.15330715  0.09373337    -0.82450
O1638       O  0.72814499  0.03842458  0.10823146    -0.82520
O1639       O  0.65345375  0.07052450  0.20215426    -0.82460
O1640       O  0.68059854  0.11892752  0.05395004    -0.82440
O1641       O  0.74562485  0.10031954  0.04815521    -0.82490
O1642       O  0.61397794  0.08616747  0.14768467    -0.82460
O1643       O  0.65044925  0.19440486  0.06290865    -0.82420
O1644       O  0.72713503  0.03837916  0.17756173    -0.82490
Co1645     Co  0.64894661  0.13443454  0.12585196     1.51530
Co1646     Co  0.75973742  0.09086024  0.10687162     1.51690
Co1647     Co  0.70867253  0.09772150  0.19576765     1.51570
Co1648     Co  0.68937347  0.16235108  0.09744327     1.51470
O1649       O  0.70982626  0.12024796  0.13825058    -1.44380
C1650       C  0.61200345  0.18133787  0.06673284     1.07170
C1651       C  0.72436470  0.01904662  0.14248363     1.07260
C1652       C  0.61977486  0.06672486  0.18188597     1.07200
C1653       C  0.71209202  0.11099850  0.03136687     1.07170
O1654       O  0.84550998  0.20575736  0.33845541    -0.82450
O1655       O  0.85848975  0.08529811  0.21374335    -0.82470
O1656       O  0.86766053  0.18985498  0.25091151    -0.82480
O1657       O  0.78229957  0.11693671  0.33234876    -0.82420
O1658       O  0.91192182  0.15166205  0.21489221    -0.82540
O1659       O  0.81432642  0.17664828  0.34624248    -0.82460
O1660       O  0.80892875  0.11430972  0.25339825    -0.82450
O1661       O  0.90274612  0.23702051  0.31231101    -0.82480
C1662       C  0.86643932  0.24003897  0.32897064     1.07240
C1663       C  0.82251885  0.10171085  0.21872252     1.07130
C1664       C  0.88606635  0.18261084  0.21678711     1.07270
C1665       C  0.78000678  0.15464990  0.34188698     1.07140
O1666       O  0.84284623  0.11204390  0.39180785    -0.82450
O1667       O  0.96160130  0.10476478  0.27884041    -0.82520
O1668       O  0.93644424  0.17085766  0.35506933    -0.82460
O1669       O  0.83883153  0.03538739  0.27029412    -0.82440
O1670       O  0.90706999  0.03805129  0.27396494    -0.82490
O1671       O  0.88842459  0.17928536  0.40347979    -0.82460
O1672       O  0.83773654  0.05383796  0.35443813    -0.82420
O1673       O  0.95737041  0.17378516  0.27646435    -0.82490
Co1674     Co  0.87464966  0.14916208  0.35355999     1.51530
Co1675     Co  0.90887183  0.09607052  0.24885460     1.51690
Co1676     Co  0.89853829  0.17749666  0.30281280     1.51570
Co1677     Co  0.82258965  0.08397654  0.30263864     1.51470
O1678       O  0.87611820  0.11817642  0.29955079    -1.44380
C1679       C  0.83479765  0.07310947  0.38890040     1.07170
C1680       C  0.97958565  0.14014471  0.27908232     1.07260
C1681       C  0.92659632  0.18162414  0.39238708     1.07200
C1682       C  0.87301758  0.01710877  0.27342550     1.07170
O1683       O  0.89851163  0.31081845  0.23319471    -0.82450
O1684       O  0.79191972  0.24602353  0.11113674    -0.82470
O1685       O  0.81640196  0.35950095  0.17384976    -0.82480
O1686       O  0.90098958  0.21151897  0.14768756    -0.82420
O1687       O  0.77534568  0.32853000  0.12741532    -0.82540
O1688       O  0.85959617  0.24722928  0.18973858    -0.82460
O1689       O  0.84496021  0.21058490  0.08257276    -0.82450
O1690       O  0.84792590  0.34902930  0.20274563    -0.82480
C1691       C  0.86697761  0.33505523  0.23664645     1.07240
C1692       C  0.80704426  0.21294620  0.09534874     1.07130
C1693       C  0.77988806  0.35153915  0.15888205     1.07270
C1694       C  0.88061610  0.21411706  0.18217658     1.07140
O1695       O  0.94537457  0.27250260  0.16954572    -0.82450
O1696       O  0.81980269  0.35104859  0.05369272    -0.82520
O1697       O  0.88761921  0.40807910  0.15940912    -0.82460
O1698       O  0.89371953  0.27471061  0.03790684    -0.82440
O1699       O  0.82551799  0.26950406  0.03407388    -0.82490
O1700       O  0.92840456  0.35258002  0.16748043    -0.82460
O1701       O  0.94842028  0.27753664  0.10166021    -0.82420
O1702       O  0.83469967  0.39387506  0.10484698    -0.82490
Co1703     Co  0.88855397  0.30055409  0.17556902     1.51530
Co1704     Co  0.80723691  0.29869736  0.08520057     1.51690
Co1705     Co  0.87019372  0.35567352  0.13924502     1.51570
Co1706     Co  0.89563162  0.24701545  0.09363713     1.51470
O1707       O  0.86281091  0.29676702  0.11789126    -1.44380
C1708       C  0.96679391  0.27430961  0.13598621     1.07170
C1709       C  0.82063635  0.38761997  0.06878419     1.07260
C1710       C  0.92164810  0.39240575  0.17119281     1.07200
C1711       C  0.86045180  0.27443240  0.01659673     1.07170
O1712       O  0.82321094  0.04831787  0.54687433    -0.82450
O1713       O  0.82340521  0.95782118  0.45224178    -0.82470
O1714       O  0.76934917  0.96058178  0.58411806    -0.82480
O1715       O  0.77143956  0.04933746  0.41369764    -0.82420
O1716       O  0.82293539  0.95391342  0.54138426    -0.82540
O1717       O  0.82327705  0.05166865  0.45883034    -0.82460
O1718       O  0.77137925  0.96844765  0.40886616    -0.82450
O1719       O  0.76932108  0.03995524  0.58869998    -0.82480
C1720       C  0.80783176  0.04942959  0.58330881     1.07240
C1721       C  0.80957696  0.95730864  0.41523798     1.07130
C1722       C  0.80790820  0.95178118  0.57806001     1.07270
C1723       C  0.80984283  0.05477414  0.42189114     1.07140
O1724       O  0.74347021  0.09777926  0.46365236    -0.82450
O1725       O  0.73917741  0.91295169  0.53583374    -0.82520
O1726       O  0.69038974  0.04531141  0.54171658    -0.82460
O1727       O  0.68949816  0.96623105  0.45354779    -0.82440
O1728       O  0.73885393  0.91789684  0.45428284    -0.82490
O1729       O  0.74084545  0.09217841  0.54439865    -0.82460
O1730       O  0.69057973  0.05415310  0.45604773    -0.82420
O1731       O  0.68982807  0.96050694  0.53769475    -0.82490
Co1732     Co  0.78246307  0.06661103  0.50302773     1.51530
Co1733     Co  0.78085705  0.94176714  0.49609315     1.51690
Co1734     Co  0.73014996  0.00184752  0.55758486     1.51570
Co1735     Co  0.73121129  0.00902117  0.43890301     1.51470
O1736       O  0.75738416  0.00484105  0.49874895    -1.44380
C1737       C  0.70503746  0.09146496  0.45429389     1.07170
C1738       C  0.70177329  0.92373370  0.54548431     1.07260
C1739       C  0.70294309  0.08129991  0.55195756     1.07200
C1740       C  0.70133370  0.92924056  0.44577461     1.07170
loop_ 
_geom_bond_atom_site_label_1 
_geom_bond_atom_site_label_2 
_geom_bond_distance 
_geom_bond_site_symmetry_2 
_ccdc_geom_bond_type 
O1            C9   1.259       .  A
O1          Co21   1.949   1_455  S
O2           C10   1.261       .  A
O2          Co22   1.972       .  S
O3           C11   1.267       .  A
O3          Co23   2.004       .  S
O4           C12   1.266       .  A
O4          Co24   1.996       .  S
O5           C11   1.259       .  A
O5          Co22   1.957   1_455  S
O6           C12   1.265       .  A
O6          Co21   1.983       .  S
O7           C10   1.273       .  A
O7          Co24   2.015       .  S
O8            C9   1.274       .  A
O8          Co23   2.020       .  S
C9         C1391   1.451       .  S
C10        C1217   1.459       .  S
C11        C1043   1.444       .  S
C12        C1623   1.458       .  S
O13          C26   1.268       .  A
O13         Co21   2.006       .  S
O14          C27   1.275       .  A
O14         Co22   2.014   1_455  S
O15          C28   1.263       .  A
O15         Co23   1.959       .  S
O16          C29   1.247       .  A
O16         Co24   1.926       .  S
O17          C29   1.270       .  A
O17         Co22   2.011       .  S
O18          C28   1.269       .  A
O18         Co21   2.001   1_455  S
O19          C26   1.253       .  A
O19         Co24   1.938       .  S
O20          C27   1.267       .  A
O20         Co23   2.010       .  S
Co21         O25   2.098       .  S
Co22         O25   2.081       .  S
Co23         O25   2.109   1_455  S
Co24         O25   2.074       .  S
C26        C1710   1.427       .  S
C27        C1130   1.493       .  S
C28        C1536   1.443       .  S
C29        C1333   1.432       .  S
O30          C38   1.262       .  A
O30         Co50   1.967   1_545  S
O31          C39   1.259       .  A
O31         Co51   1.973       .  S
O32          C40   1.272       .  A
O32         Co52   2.031       .  S
O33          C41   1.275       .  A
O33         Co53   2.028       .  S
O34          C40   1.256       .  A
O34         Co51   1.951   1_545  S
O35          C41   1.264       .  A
O35         Co50   1.993       .  S
O36          C39   1.265       .  A
O36         Co53   1.998       .  S
O37          C38   1.271       .  A
O37         Co52   2.024       .  S
C38        C1594   1.473       .  S
C39        C1101   1.454       .  S
C40        C1449   1.467       .  S
C41        C1246   1.485       .  S
O42          C55   1.269       .  A
O42         Co50   2.025       .  S
O43          C56   1.272       .  A
O43         Co51   2.041   1_545  S
O44          C57   1.262       .  A
O44         Co52   1.979       .  S
O45          C58   1.253       .  A
O45         Co53   1.944       .  S
O46          C58   1.269       .  A
O46         Co51   2.013       .  S
O47          C57   1.273       .  A
O47         Co50   2.015   1_545  S
O48          C55   1.252       .  A
O48         Co53   1.949       .  S
O49          C56   1.265       .  A
O49         Co52   1.984       .  S
Co50         O54   2.129       .  S
Co51         O54   2.122       .  S
Co52         O54   2.123   1_545  S
Co53         O54   2.100       .  S
C55        C1304   1.457       .  S
C56        C1507   1.489       .  S
C57        C1652   1.474       .  S
C58        C1188   1.447       .  S
O59          C67   1.270       .  A
O59         Co79   2.002       .  S
O60          C68   1.267       .  A
O60         Co80   1.963       .  S
O61          C69   1.271       .  A
O61         Co81   2.001   1_565  S
O62          C70   1.274       .  A
O62         Co82   2.023       .  S
O63          C69   1.282       .  A
O63         Co80   2.022       .  S
O64          C70   1.261       .  A
O64         Co79   1.955       .  S
O65          C68   1.270       .  A
O65         Co82   2.008   1_565  S
O66          C67   1.270       .  A
O66         Co81   1.988       .  S
C67        C1478   1.472       .  S
C68         C956   1.463       .  S
C69        C1159   1.495       .  S
C70         C637   1.461       .  S
O71          C84   1.280       .  A
O71         Co79   2.051       .  S
O72          C85   1.255       .  A
O72         Co80   1.961       .  S
O73          C86   1.270       .  A
O73         Co81   1.980       .  S
O74          C87   1.272       .  A
O74         Co82   1.993   1_565  S
O75          C87   1.279       .  A
O75         Co80   2.040       .  S
O76          C86   1.263       .  A
O76         Co79   1.979       .  S
O77          C84   1.271       .  A
O77         Co82   2.014       .  S
O78          C85   1.271       .  A
O78         Co81   1.968   1_565  S
Co79         O83   2.109       .  S
Co80         O83   2.125   1_565  S
Co81         O83   2.077       .  S
Co82         O83   2.111       .  S
C84         C521   1.506       .  S
C85        C1099   1.430       .  S
C86        C1448   1.442       .  S
C87         C869   1.486       .  S
O88          C96   1.265       .  A
O88        Co108   1.975       .  S
O89          C97   1.266       .  A
O89        Co109   1.974   1_655  S
O90          C98   1.282       .  A
O90        Co110   2.049       .  S
O91          C99   1.268       .  A
O91        Co111   2.011       .  S
O92          C98   1.262       .  A
O92        Co109   1.992       .  S
O93          C99   1.265       .  A
O93        Co108   1.973   1_655  S
O94          C97   1.268       .  A
O94        Co111   2.008       .  S
O95          C96   1.262       .  A
O95        Co110   1.978       .  S
C96         C550   1.442       .  S
C97        C1622   1.463       .  S
C98        C1389   1.496       .  S
C99         C347   1.464       .  S
O100        C113   1.271       .  A
O100       Co108   2.018   1_655  S
O101        C114   1.274       .  A
O101       Co109   2.027       .  S
O102        C115   1.274       .  A
O102       Co110   2.017       .  S
O103        C116   1.258       .  A
O103       Co111   1.955       .  S
O104        C116   1.269       .  A
O104       Co109   2.021   1_655  S
O105        C115   1.270       .  A
O105       Co108   2.007       .  S
O106        C113   1.258       .  A
O106       Co111   1.951       .  S
O107        C114   1.264       .  A
O107       Co110   1.966       .  S
Co108       O112   2.108       .  S
Co109       O112   2.118       .  S
Co110       O112   2.109       .  S
Co111       O112   2.105   1_655  S
C113        C434   1.450       .  S
C114       C1476   1.469       .  S
C115        C636   1.491       .  S
C116       C1681   1.463       .  S
O117        C125   1.270       .  A
O117       Co137   1.976       .  S
O118        C126   1.265       .  A
O118       Co138   1.953   1_556  S
O119        C127   1.279       .  A
O119       Co139   2.034       .  S
O120        C128   1.269       .  A
O120       Co140   2.001       .  S
O121        C127   1.281       .  A
O121       Co138   2.023       .  S
O122        C128   1.256       .  A
O122       Co137   1.944   1_556  S
O123        C126   1.269       .  A
O123       Co140   2.008       .  S
O124        C125   1.258       .  A
O124       Co139   1.955       .  S
C125       C1420   1.425       .  S
C126        C376   1.449       .  S
C127       C1565   1.504       .  S
C128        C579   1.433       .  S
O129        C142   1.284       .  A
O129       Co137   2.054   1_556  S
O130        C143   1.256       .  A
O130       Co138   1.945       .  S
O131        C144   1.276       .  A
O131       Co139   1.991       .  S
O132        C145   1.264       .  A
O132       Co140   1.959       .  S
O133        C145   1.277       .  A
O133       Co138   2.035   1_556  S
O134        C144   1.258       .  A
O134       Co137   1.954       .  S
O135        C142   1.265       .  A
O135       Co140   2.001       .  S
O136        C143   1.266       .  A
O136       Co139   1.949       .  S
Co137       O141   2.076       .  S
Co138       O141   2.104       .  S
Co139       O141   2.083       .  S
Co140       O141   2.111   1_556  S
C142        C666   1.500       .  S
C143       C1650   1.414       .  S
C144       C1506   1.436       .  S
C145        C463   1.458       .  S
O146        C154   1.261       .  A
O146       Co166   1.956   1_554  S
O147        C155   1.265       .  A
O147       Co167   1.999       .  S
O148        C156   1.272       .  A
O148       Co168   2.032       .  S
O149        C157   1.272       .  A
O149       Co169   2.005       .  S
O150        C156   1.263       .  A
O150       Co167   1.969   1_554  S
O151        C157   1.264       .  A
O151       Co166   2.008       .  S
O152        C155   1.270       .  A
O152       Co169   1.991       .  S
O153        C154   1.262       .  A
O153       Co168   1.967       .  S
C154       C1072   1.430       .  S
C155        C578   1.470       .  S
C156       C1418   1.471       .  S
C157        C898   1.484       .  S
O158        C171   1.272       .  A
O158       Co166   2.030       .  S
O159        C172   1.275       .  A
O159       Co167   2.047   1_554  S
O160        C173   1.256       .  A
O160       Co168   1.955       .  S
O161        C174   1.247       .  A
O161       Co169   1.930       .  S
O162        C174   1.270       .  A
O162       Co167   2.017       .  S
O163        C173   1.274       .  A
O163       Co166   2.039   1_554  S
O164        C171   1.245       .  A
O164       Co169   1.927       .  S
O165        C172   1.249       .  A
O165       Co168   1.932       .  S
Co166       O170   2.124       .  S
Co167       O170   2.123       .  S
Co168       O170   2.088   1_554  S
Co169       O170   2.063       .  S
C171        C985   1.441       .  S
C172       C1534   1.456       .  S
C173       C1129   1.467       .  S
C174        C608   1.435       .  S
O175        C183   1.266       .  A
O175       Co195   1.976       .  S
O176        C184   1.263       .  A
O176       Co196   1.995       .  S
O177        C185   1.264       .  A
O177       Co197   2.000   1_565  S
O178        C186   1.233       .  A
O178       Co198   1.911       .  S
O179        C185   1.276       .  A
O179       Co196   2.013       .  S
O180        C186   1.275       .  A
O180       Co195   2.046       .  S
O181        C184   1.247       .  A
O181       Co198   1.933   1_565  S
O182        C183   1.267       .  A
O182       Co197   2.005       .  S
C183        C405   1.474       .  S
C184        C867   1.425       .  S
C185        C695   1.483       .  S
C186        C520   1.440       .  S
O187        C200   1.240       .  A
O187       Co195   1.925       .  S
O188        C201   1.243       .  A
O188       Co196   1.920       .  S
O189        C202   1.272       .  A
O189       Co197   2.031       .  S
O190        C203   1.263       .  A
O190       Co198   1.999   1_565  S
O191        C203   1.250       .  A
O191       Co196   1.941       .  S
O192        C202   1.248       .  A
O192       Co195   1.933       .  S
O193        C200   1.280       .  A
O193       Co198   2.073       .  S
O194        C201   1.275       .  A
O194       Co197   2.038   1_565  S
Co195       O199   2.068       .  S
Co196       O199   2.072   1_565  S
Co197       O199   2.129       .  S
Co198       O199   2.082       .  S
C200        C665   1.465       .  S
C201        C840   1.439       .  S
C202        C461   1.442       .  S
C203       C1014   1.432       .  S
O204        C212   1.271       .  A
O204       Co224   2.021       .  S
O205        C213   1.263       .  A
O205       Co225   1.985       .  S
O206        C214   1.263       .  A
O206       Co226   1.999       .  S
O207        C215   1.260       .  A
O207       Co227   1.954   1_554  S
O208        C214   1.277       .  A
O208       Co225   2.029       .  S
O209        C215   1.272       .  A
O209       Co224   2.020       .  S
O210        C213   1.263       .  A
O210       Co227   1.967       .  S
O211        C212   1.260       .  A
O211       Co226   1.961   1_554  S
C212       C1275   1.462       .  S
C213        C374   1.442       .  S
C214        C753   1.489       .  S
C215       C1564   1.464       .  S
O216        C229   1.267       .  A
O216       Co224   1.979       .  S
O217        C230   1.249       .  A
O217       Co225   1.934       .  S
O218        C231   1.276       .  A
O218       Co226   2.027   1_554  S
O219        C232   1.267       .  A
O219       Co227   2.005       .  S
O220        C232   1.257       .  A
O220       Co225   1.952       .  S
O221        C231   1.267       .  A
O221       Co224   2.004       .  S
O222        C229   1.267       .  A
O222       Co227   2.003   1_554  S
O223        C230   1.270       .  A
O223       Co226   2.020       .  S
Co224       O228   2.119   1_554  S
Co225       O228   2.087       .  S
Co226       O228   2.113       .  S
Co227       O228   2.113       .  S
C229       C1709   1.461       .  S
C230        C811   1.440       .  S
C231       C1331   1.494       .  S
C232        C492   1.447       .  S
O233        C241   1.269       .  A
O233       Co253   2.002       .  S
O234        C242   1.258       .  A
O234       Co254   1.973       .  S
O235        C243   1.265       .  A
O235       Co255   1.962   1_655  S
O236        C244   1.259       .  A
O236       Co256   1.948       .  S
O237        C243   1.274       .  A
O237       Co254   2.024       .  S
O238        C244   1.270       .  A
O238       Co253   2.002       .  S
O239        C242   1.261       .  A
O239       Co256   1.961   1_655  S
O240        C241   1.272       .  A
O240       Co255   2.018       .  S
C241        C927   1.493       .  S
C242       C1215   1.434       .  S
C243        C724   1.455       .  S
C244       C1042   1.438       .  S
O245        C258   1.260       .  A
O245       Co253   1.959       .  S
O246        C259   1.249       .  A
O246       Co254   1.927       .  S
O247        C260   1.265       .  A
O247       Co255   1.986       .  S
O248        C261   1.270       .  A
O248       Co256   2.016   1_655  S
O249        C261   1.261       .  A
O249       Co254   1.958       .  S
O250        C260   1.264       .  A
O250       Co253   1.963       .  S
O251        C258   1.266       .  A
O251       Co256   2.000       .  S
O252        C259   1.274       .  A
O252       Co255   2.035   1_655  S
Co253       O257   2.089       .  S
Co254       O257   2.095   1_655  S
Co255       O257   2.119       .  S
Co256       O257   2.101       .  S
C258       C1158   1.449       .  S
C259        C782   1.445       .  S
C260        C954   1.436       .  S
C261       C1362   1.459       .  S
O262        C270   1.268       .  A
O262       Co282   2.004       .  S
O263        C271   1.271       .  A
O263       Co283   2.012       .  S
O264        C272   1.267       .  A
O264       Co284   1.984       .  S
O265        C273   1.268       .  A
O265       Co285   1.990       .  S
O266        C272   1.271       .  A
O266       Co283   2.016       .  S
O267        C273   1.273       .  A
O267       Co282   2.018       .  S
O268        C271   1.273       .  A
O268       Co285   2.005   1_655  S
O269        C270   1.272       .  A
O269       Co284   1.998   1_455  S
C270        C984   1.479       .  S
C271        C491   1.491       .  S
C272        C809   1.483       .  S
C273        C606   1.485       .  S
O274        C287   1.274       .  A
O274       Co282   2.041       .  S
O275        C288   1.276       .  A
O275       Co283   2.044       .  S
O276        C289   1.254       .  A
O276       Co284   1.950   1_455  S
O277        C290   1.256       .  A
O277       Co285   1.947   1_655  S
O278        C290   1.274       .  A
O278       Co283   2.033       .  S
O279        C289   1.280       .  A
O279       Co282   2.060       .  S
O280        C287   1.260       .  A
O280       Co285   1.963       .  S
O281        C288   1.256       .  A
O281       Co284   1.947       .  S
Co282       O286   2.132       .  S
Co283       O286   2.143   1_655  S
Co284       O286   2.079   1_655  S
Co285       O286   2.079       .  S
C287        C548   1.476       .  S
C288        C722   1.459       .  S
C289        C926   1.480       .  S
C290        C346   1.454       .  S
O291        C299   1.279       .  A
O291       Co311   2.030       .  S
O292        C300   1.268       .  A
O292       Co312   2.014       .  S
O293        C301   1.278       .  A
O293       Co313   2.018   1_556  S
O294        C302   1.271       .  A
O294       Co314   1.994       .  S
O295        C301   1.265       .  A
O295       Co312   1.996       .  S
O296        C302   1.273       .  A
O296       Co311   2.011       .  S
O297        C300   1.273       .  A
O297       Co314   2.005   1_556  S
O298        C299   1.264       .  A
O298       Co313   1.973       .  S
C299       C1303   1.488       .  S
C300       C1013   1.493       .  S
C301        C838   1.485       .  S
C302       C1186   1.486       .  S
O303        C316   1.278       .  A
O303       Co311   2.053       .  S
O304        C317   1.276       .  A
O304       Co312   2.046       .  S
O305        C318   1.264       .  A
O305       Co313   1.970       .  S
O306        C319   1.254       .  A
O306       Co314   1.950   1_556  S
O307        C319   1.275       .  A
O307       Co312   2.046       .  S
O308        C318   1.270       .  A
O308       Co311   2.012       .  S
O309        C316   1.254       .  A
O309       Co314   1.945       .  S
O310        C317   1.255       .  A
O310       Co313   1.952   1_556  S
Co311       O315   2.134       .  S
Co312       O315   2.137   1_556  S
Co313       O315   2.083       .  S
Co314       O315   2.070       .  S
C316       C1070   1.462       .  S
C317        C751   1.468       .  S
C318       C1274   1.455       .  S
C319        C897   1.467       .  S
O320        C328   1.254       .  A
O320       Co340   1.954       .  S
O321        C329   1.264       .  A
O321       Co341   1.967       .  S
O322        C330   1.318       .  A
O322       Co342   2.148       .  S
O323        C331   1.284       .  A
O323       Co343   2.072       .  S
O324        C330   1.270       .  A
O324       Co341   1.878       .  S
O325        C331   1.256       .  A
O325       Co340   1.927       .  S
O326        C329   1.264       .  A
O326       Co343   2.022       .  S
O327        C328   1.286       .  A
O327       Co342   2.060       .  S
C328        C415   1.494       .  S
C329        C358   1.470       .  S
C330        C475   1.463       .  S
C331        C387   1.472       .  S
O332        C345   1.261       .  A
O332       Co340   1.988       .  S
O333        C346   1.290       .  A
O333       Co341   2.103       .  S
O334        C347   1.265       .  A
O334       Co342   1.998       .  S
O335        C348   1.263       .  A
O335       Co343   1.962       .  S
O336        C348   1.276       .  A
O336       Co341   2.045       .  S
O337        C347   1.260       .  A
O337       Co340   1.975       .  S
O338        C345   1.254       .  A
O338       Co343   1.980       .  S
O339        C346   1.254       .  A
O339       Co342   1.880       .  S
Co340       O344   2.051       .  S
Co341       O344   2.015       .  S
Co342       O344   2.000       .  S
Co343       O344   2.077       .  S
C345       C1624   1.464       .  S
C348        C725   1.482       .  S
O349        C357   1.319       .  A
O349       Co369   2.148       .  S
O350        C358   1.289       .  A
O350       Co370   2.083       .  S
O351        C359   1.265       .  A
O351       Co371   1.947       .  S
O352        C360   1.248       .  A
O352       Co372   1.929       .  S
O353        C359   1.257       .  A
O353       Co370   1.995       .  S
O354        C360   1.288       .  A
O354       Co369   2.069       .  S
O355        C358   1.252       .  A
O355       Co372   1.923       .  S
O356        C357   1.276       .  A
O356       Co371   1.913       .  S
C357        C444   1.493       .  S
C359        C389   1.443       .  S
C360        C473   1.489       .  S
O361        C374   1.257       .  A
O361       Co369   1.964       .  S
O362        C375   1.275       .  A
O362       Co370   1.998       .  S
O363        C376   1.289       .  A
O363       Co371   2.109       .  S
O364        C377   1.255       .  A
O364       Co372   1.986       .  S
O365        C377   1.263       .  A
O365       Co370   1.976       .  S
O366        C376   1.252       .  A
O366       Co369   1.878       .  S
O367        C374   1.260       .  A
O367       Co372   1.967       .  S
O368        C375   1.284       .  A
O368       Co371   2.052       .  S
Co369       O373   1.988       .  S
Co370       O373   2.066       .  S
Co371       O373   1.999       .  S
Co372       O373   2.056       .  S
C375        C577   1.504       .  S
C377        C752   1.458       .  S
O378        C386   1.249       .  A
O378       Co398   1.962       .  S
O379        C387   1.262       .  A
O379       Co399   1.950       .  S
O380        C388   1.289       .  A
O380       Co400   2.094       .  S
O381        C389   1.272       .  A
O381       Co401   2.049       .  S
O382        C388   1.268       .  A
O382       Co399   1.907       .  S
O383        C389   1.232       .  A
O383       Co398   1.900       .  S
O384        C387   1.273       .  A
O384       Co401   2.047       .  S
O385        C386   1.264       .  A
O385       Co400   2.018       .  S
C386        C447   1.467       .  S
C388        C417   1.457       .  S
O390        C403   1.273       .  A
O390       Co398   2.035       .  S
O391        C404   1.287       .  A
O391       Co399   2.070       .  S
O392        C405   1.278       .  A
O392       Co400   1.993       .  S
O393        C406   1.266       .  A
O393       Co401   1.993       .  S
O394        C406   1.269       .  A
O394       Co399   2.017       .  S
O395        C405   1.277       .  A
O395       Co398   1.983       .  S
O396        C403   1.266       .  A
O396       Co401   1.966       .  S
O397        C404   1.271       .  A
O397       Co400   1.893       .  S
Co398       O402   1.999       .  S
Co399       O402   1.990       .  S
Co400       O402   2.017       .  S
Co401       O402   2.081       .  S
C403        C522   1.480       .  S
C404       C1739   1.454       .  S
C406       C1595   1.484       .  S
O407        C415   1.273       .  A
O407       Co427   1.934       .  S
O408        C416   1.248       .  A
O408       Co428   1.930       .  S
O409        C417   1.258       .  A
O409       Co429   1.996       .  S
O410        C418   1.262       .  A
O410       Co430   2.013       .  S
O411        C417   1.261       .  A
O411       Co428   1.977       .  S
O412        C418   1.265       .  A
O412       Co427   1.938       .  S
O413        C416   1.281       .  A
O413       Co430   2.071       .  S
O414        C415   1.299       .  A
O414       Co429   2.127       .  S
C416        C445   1.475       .  S
C418        C474   1.447       .  S
O419        C432   1.277       .  A
O419       Co427   2.027       .  S
O420        C433   1.272       .  A
O420       Co428   1.981       .  S
O421        C434   1.267       .  A
O421       Co429   1.872       .  S
O422        C435   1.260       .  A
O422       Co430   1.946       .  S
O423        C435   1.276       .  A
O423       Co428   2.039       .  S
O424        C434   1.295       .  A
O424       Co427   2.110       .  S
O425        C432   1.268       .  A
O425       Co430   1.990       .  S
O426        C433   1.280       .  A
O426       Co429   2.004       .  S
Co427       O431   1.984       .  S
Co428       O431   2.014       .  S
Co429       O431   2.004       .  S
Co430       O431   2.075       .  S
C432        C638   1.486   1_655  S
C433       C1720   1.482       .  S
C435        C783   1.469   1_545  S
O436        C444   1.290       .  A
O436       Co456   2.056       .  S
O437        C445   1.267       .  A
O437       Co457   2.040       .  S
O438        C446   1.251       .  A
O438       Co458   1.917       .  S
O439        C447   1.266       .  A
O439       Co459   1.885       .  S
O440        C446   1.284       .  A
O440       Co457   2.065       .  S
O441        C447   1.319       .  A
O441       Co456   2.143       .  S
O442        C445   1.262       .  A
O442       Co459   1.958       .  S
O443        C444   1.256       .  A
O443       Co458   1.969       .  S
C446        C476   1.475       .  S
O448        C461   1.257       .  A
O448       Co456   1.882       .  S
O449        C462   1.246       .  A
O449       Co457   1.967       .  S
O450        C463   1.256       .  A
O450       Co458   1.966       .  S
O451        C464   1.273       .  A
O451       Co459   2.042       .  S
O452        C464   1.253       .  A
O452       Co457   1.952       .  S
O453        C463   1.264       .  A
O453       Co456   2.001       .  S
O454        C461   1.284       .  A
O454       Co459   2.080       .  S
O455        C462   1.266       .  A
O455       Co458   2.006       .  S
Co456       O460   2.001       .  S
Co457       O460   2.070       .  S
Co458       O460   2.063       .  S
Co459       O460   2.018       .  S
C462       C1653   1.467   1_556  S
C464        C839   1.475   1_545  S
O465        C473   1.270       .  A
O465       Co485   1.926       .  S
O466        C474   1.234       .  A
O466       Co486   1.898       .  S
O467        C475   1.261       .  A
O467       Co487   2.006       .  S
O468        C476   1.268       .  A
O468       Co488   2.041       .  S
O469        C475   1.253       .  A
O469       Co486   1.967       .  S
O470        C476   1.266       .  A
O470       Co485   1.961       .  S
O471        C474   1.273       .  A
O471       Co488   2.056       .  S
O472        C473   1.303       .  A
O472       Co487   2.131       .  S
O477        C490   1.272       .  A
O477       Co485   2.009       .  S
O478        C491   1.275       .  A
O478       Co486   1.991       .  S
O479        C492   1.268       .  A
O479       Co487   1.872       .  S
O480        C493   1.249       .  A
O480       Co488   1.936       .  S
O481        C493   1.276       .  A
O481       Co486   2.038       .  S
O482        C492   1.294       .  A
O482       Co485   2.104       .  S
O483        C490   1.254       .  A
O483       Co488   1.955       .  S
O484        C491   1.280       .  A
O484       Co487   2.010       .  S
Co485       O489   1.986       .  S
Co486       O489   2.001       .  S
Co487       O489   2.005       .  S
Co488       O489   2.091       .  S
C490       C1711   1.454   1_556  S
C493        C609   1.463   1_655  S
O494        C502   1.267       .  A
O494       Co514   1.977       .  S
O495        C503   1.269       .  A
O495       Co515   1.959       .  S
O496        C504   1.271       .  A
O496       Co516   2.054       .  S
O497        C505   1.264       .  A
O497       Co517   2.041       .  S
O498        C504   1.274       .  A
O498       Co515   1.901       .  S
O499        C505   1.247       .  A
O499       Co514   1.937       .  S
O500        C503   1.275       .  A
O500       Co517   2.030       .  S
O501        C502   1.271       .  A
O501       Co516   2.013       .  S
C502        C618   1.462       .  S
C503        C563   1.467       .  S
C504        C649   1.451       .  S
C505        C533   1.455       .  S
O506        C519   1.280       .  A
O506       Co514   2.009       .  S
O507        C520   1.279       .  A
O507       Co515   2.047       .  S
O508        C521   1.282       .  A
O508       Co516   2.003       .  S
O509        C522   1.254       .  A
O509       Co517   1.961       .  S
O510        C522   1.271       .  A
O510       Co515   2.044       .  S
O511        C521   1.274       .  A
O511       Co514   2.014       .  S
O512        C519   1.251       .  A
O512       Co517   1.913       .  S
O513        C520   1.282       .  A
O513       Co516   1.897       .  S
Co514       O518   1.981       .  S
Co515       O518   1.978       .  S
Co516       O518   2.012       .  S
Co517       O518   2.072       .  S
C519       C1450   1.423       .  S
O523        C531   1.296       .  A
O523       Co543   2.089       .  S
O524        C532   1.270       .  A
O524       Co544   2.033       .  S
O525        C533   1.261       .  A
O525       Co545   1.918       .  S
O526        C534   1.271       .  A
O526       Co546   1.907       .  S
O527        C533   1.279       .  A
O527       Co544   2.046       .  S
O528        C534   1.312       .  A
O528       Co543   2.116       .  S
O529        C532   1.263       .  A
O529       Co546   1.955       .  S
O530        C531   1.237       .  A
O530       Co545   1.906       .  S
C531        C620   1.483       .  S
C532        C561   1.466       .  S
C534        C592   1.476       .  S
O535        C548   1.261       .  A
O535       Co543   1.924       .  S
O536        C549   1.265       .  A
O536       Co544   2.014       .  S
O537        C550   1.267       .  A
O537       Co545   1.981       .  S
O538        C551   1.275       .  A
O538       Co546   2.030       .  S
O539        C551   1.265       .  A
O539       Co544   1.964       .  S
O540        C550   1.263       .  A
O540       Co543   1.972       .  S
O541        C548   1.284       .  A
O541       Co546   2.096       .  S
O542        C549   1.242       .  A
O542       Co545   1.947       .  S
Co543       O547   2.010       .  S
Co544       O547   2.061       .  S
Co545       O547   2.042       .  S
Co546       O547   2.017       .  S
C549       C1392   1.461       .  S
C551        C928   1.472       .  S
O552        C560   1.267       .  A
O552       Co572   1.905       .  S
O553        C561   1.244       .  A
O553       Co573   1.932       .  S
O554        C562   1.256       .  A
O554       Co574   1.993       .  S
O555        C563   1.277       .  A
O555       Co575   2.041       .  S
O556        C562   1.265       .  A
O556       Co573   1.993       .  S
O557        C563   1.256       .  A
O557       Co572   1.952       .  S
O558        C561   1.273       .  A
O558       Co575   2.055       .  S
O559        C560   1.290       .  A
O559       Co574   2.106       .  S
C560        C647   1.460       .  S
C562        C589   1.465       .  S
O564        C577   1.271       .  A
O564       Co572   2.038       .  S
O565        C578   1.271       .  A
O565       Co573   1.974       .  S
O566        C579   1.264       .  A
O566       Co574   1.868       .  S
O567        C580   1.265       .  A
O567       Co575   1.963       .  S
O568        C580   1.282       .  A
O568       Co573   2.052       .  S
O569        C579   1.291       .  A
O569       Co572   2.075       .  S
O570        C577   1.265       .  A
O570       Co575   2.001       .  S
O571        C578   1.275       .  A
O571       Co574   1.986       .  S
Co572       O576   1.999       .  S
Co573       O576   2.006       .  S
Co574       O576   2.008       .  S
Co575       O576   2.069       .  S
C580        C896   1.486       .  S
O581        C589   1.285       .  A
O581       Co601   2.089       .  S
O582        C590   1.263       .  A
O582       Co602   2.041       .  S
O583        C591   1.261       .  A
O583       Co603   1.939       .  S
O584        C592   1.259       .  A
O584       Co604   1.988       .  S
O585        C591   1.277       .  A
O585       Co602   2.053       .  S
O586        C592   1.263       .  A
O586       Co601   2.010       .  S
O587        C590   1.249       .  A
O587       Co604   1.918       .  S
O588        C589   1.269       .  A
O588       Co603   1.917       .  S
C590        C619   1.449       .  S
C591        C650   1.471       .  S
O593        C606   1.276       .  A
O593       Co601   1.990       .  S
O594        C607   1.267       .  A
O594       Co602   1.995       .  S
O595        C608   1.286       .  A
O595       Co603   2.055       .  S
O596        C609   1.269       .  A
O596       Co604   2.010       .  S
O597        C609   1.271       .  A
O597       Co602   1.968       .  S
O598        C608   1.269       .  A
O598       Co601   1.881       .  S
O599        C606   1.281       .  A
O599       Co604   2.010       .  S
O600        C607   1.271       .  A
O600       Co603   2.037       .  S
Co601       O605   2.012       .  S
Co602       O605   2.087       .  S
Co603       O605   1.996       .  S
Co604       O605   1.996       .  S
C607       C1537   1.500   1_556  S
O610        C618   1.262       .  A
O610       Co630   1.911       .  S
O611        C619   1.233       .  A
O611       Co631   1.906       .  S
O612        C620   1.278       .  A
O612       Co632   2.031       .  S
O613        C621   1.287       .  A
O613       Co633   2.072       .  S
O614        C620   1.247       .  A
O614       Co631   1.966       .  S
O615        C621   1.257       .  A
O615       Co630   1.951       .  S
O616        C619   1.259       .  A
O616       Co633   2.051       .  S
O617        C618   1.288       .  A
O617       Co632   2.095       .  S
C621        C648   1.481       .  S
O622        C635   1.264       .  A
O622       Co630   2.032       .  S
O623        C636   1.282       .  A
O623       Co631   2.022       .  S
O624        C637   1.277       .  A
O624       Co632   1.910       .  S
O625        C638   1.270       .  A
O625       Co633   1.987       .  S
O626        C638   1.274       .  A
O626       Co631   2.024       .  S
O627        C637   1.289       .  A
O627       Co630   2.060       .  S
O628        C635   1.262       .  A
O628       Co633   1.989       .  S
O629        C636   1.275       .  A
O629       Co632   1.992       .  S
Co630       O634   2.008       .  S
Co631       O634   2.000       .  S
Co632       O634   2.020       .  S
Co633       O634   2.095       .  S
C635        C955   1.494   1_545  S
O639        C647   1.268       .  A
O639       Co659   1.979       .  S
O640        C648   1.271       .  A
O640       Co660   1.977       .  S
O641        C649   1.275       .  A
O641       Co661   2.065       .  S
O642        C650   1.272       .  A
O642       Co662   2.063       .  S
O643        C649   1.277       .  A
O643       Co660   1.897       .  S
O644        C650   1.248       .  A
O644       Co659   1.935       .  S
O645        C648   1.272       .  A
O645       Co662   2.030       .  S
O646        C647   1.265       .  A
O646       Co661   2.003       .  S
O651        C664   1.279       .  A
O651       Co659   2.019       .  S
O652        C665   1.287       .  A
O652       Co660   2.078       .  S
O653        C666   1.286       .  A
O653       Co661   2.010       .  S
O654        C667   1.260       .  A
O654       Co662   1.972       .  S
O655        C667   1.275       .  A
O655       Co660   2.042       .  S
O656        C666   1.270       .  A
O656       Co659   1.995       .  S
O657        C664   1.253       .  A
O657       Co662   1.928       .  S
O658        C665   1.279       .  A
O658       Co661   1.904       .  S
Co659       O663   2.000       .  S
Co660       O663   1.996       .  S
Co661       O663   2.018       .  S
Co662       O663   2.080       .  S
C664       C1508   1.439   1_556  S
C667       C1012   1.487   1_545  S
O668        C676   1.259       .  A
O668       Co688   2.002       .  S
O669        C677   1.272       .  A
O669       Co689   2.052       .  S
O670        C678   1.236       .  A
O670       Co690   1.911       .  S
O671        C679   1.267       .  A
O671       Co691   1.893       .  S
O672        C678   1.275       .  A
O672       Co689   2.061       .  S
O673        C679   1.293       .  A
O673       Co688   2.108       .  S
O674        C677   1.266       .  A
O674       Co691   1.966       .  S
O675        C676   1.262       .  A
O675       Co690   1.986       .  S
C676        C821   1.472       .  S
C677        C707   1.486       .  S
C678        C735   1.457       .  S
C679        C766   1.452       .  S
O680        C693   1.271       .  A
O680       Co688   1.894       .  S
O681        C694   1.263       .  A
O681       Co689   1.967       .  S
O682        C695   1.270       .  A
O682       Co690   1.970       .  S
O683        C696   1.264       .  A
O683       Co691   1.999       .  S
O684        C696   1.266       .  A
O684       Co689   1.994       .  S
O685        C695   1.284       .  A
O685       Co688   2.011       .  S
O686        C693   1.289       .  A
O686       Co691   2.086       .  S
O687        C694   1.281       .  A
O687       Co690   2.063       .  S
Co688       O692   2.020       .  S
Co689       O692   2.092       .  S
Co690       O692   2.009       .  S
Co691       O692   1.997       .  S
C693       C1738   1.463       .  S
C694        C870   1.494       .  S
C696       C1247   1.473       .  S
O697        C705   1.289       .  A
O697       Co717   2.067       .  S
O698        C706   1.266       .  A
O698       Co718   2.035       .  S
O699        C707   1.255       .  A
O699       Co719   1.933       .  S
O700        C708   1.270       .  A
O700       Co720   1.887       .  S
O701        C707   1.287       .  A
O701       Co718   2.076       .  S
O702        C708   1.318       .  A
O702       Co717   2.142       .  S
O703        C706   1.267       .  A
O703       Co720   1.973       .  S
O704        C705   1.261       .  A
O704       Co719   1.982       .  S
C705        C763   1.505       .  S
C706        C736   1.484       .  S
C708        C795   1.466       .  S
O709        C722   1.254       .  A
O709       Co717   1.885       .  S
O710        C723   1.254       .  A
O710       Co718   1.989       .  S
O711        C724   1.256       .  A
O711       Co719   1.970       .  S
O712        C725   1.275       .  A
O712       Co720   2.042       .  S
O713        C725   1.261       .  A
O713       Co718   1.962       .  S
O714        C724   1.262       .  A
O714       Co717   1.992       .  S
O715        C722   1.290       .  A
O715       Co720   2.107       .  S
O716        C723   1.269       .  A
O716       Co719   2.022       .  S
Co717       O721   2.010       .  S
Co718       O721   2.077       .  S
Co719       O721   2.065       .  S
Co720       O721   2.030       .  S
C723       C1218   1.490       .  S
O726        C734   1.258       .  A
O726       Co746   1.998       .  S
O727        C735   1.261       .  A
O727       Co747   2.008       .  S
O728        C736   1.244       .  A
O728       Co748   1.932       .  S
O729        C737   1.270       .  A
O729       Co749   1.893       .  S
O730        C736   1.283       .  A
O730       Co747   2.087       .  S
O731        C737   1.291       .  A
O731       Co746   2.106       .  S
O732        C735   1.267       .  A
O732       Co749   1.958       .  S
O733        C734   1.263       .  A
O733       Co748   1.987       .  S
C734        C792   1.468       .  S
C737        C824   1.454       .  S
O738        C751   1.269       .  A
O738       Co746   1.894       .  S
O739        C752   1.250       .  A
O739       Co747   1.926       .  S
O740        C753   1.271       .  A
O740       Co748   1.984       .  S
O741        C754   1.269       .  A
O741       Co749   2.017       .  S
O742        C754   1.264       .  A
O742       Co747   1.986       .  S
O743        C753   1.285       .  A
O743       Co746   2.011       .  S
O744        C751   1.294       .  A
O744       Co749   2.097       .  S
O745        C752   1.280       .  A
O745       Co748   2.047       .  S
Co746       O750   2.015       .  S
Co747       O750   2.086       .  S
Co748       O750   2.016       .  S
Co749       O750   1.993       .  S
C754        C899   1.481       .  S
O755        C763   1.298       .  A
O755       Co775   2.131       .  S
O756        C764   1.272       .  A
O756       Co776   2.040       .  S
O757        C765   1.266       .  A
O757       Co777   1.947       .  S
O758        C766   1.259       .  A
O758       Co778   1.971       .  S
O759        C765   1.268       .  A
O759       Co776   2.042       .  S
O760        C766   1.257       .  A
O760       Co775   1.990       .  S
O761        C764   1.245       .  A
O761       Co778   1.912       .  S
O762        C763   1.276       .  A
O762       Co777   1.942       .  S
C764        C823   1.446       .  S
C765        C793   1.468       .  S
O767        C780   1.283       .  A
O767       Co775   2.014       .  S
O768        C781   1.258       .  A
O768       Co776   1.962       .  S
O769        C782   1.289       .  A
O769       Co777   2.093       .  S
O770        C783   1.275       .  A
O770       Co778   2.042       .  S
O771        C783   1.259       .  A
O771       Co776   1.946       .  S
O772        C782   1.270       .  A
O772       Co775   1.873       .  S
O773        C780   1.272       .  A
O773       Co778   1.977       .  S
O774        C781   1.281       .  A
O774       Co777   2.027       .  S
Co775       O779   2.013       .  S
Co776       O779   2.080       .  S
Co777       O779   1.982       .  S
Co778       O779   2.004       .  S
C780       C1722   1.489       .  S
C781        C957   1.467   1_655  S
O784        C792   1.290       .  A
O784       Co804   2.102       .  S
O785        C793   1.277       .  A
O785       Co805   2.075       .  S
O786        C794   1.263       .  A
O786       Co806   1.949       .  S
O787        C795   1.252       .  A
O787       Co807   1.972       .  S
O788        C794   1.268       .  A
O788       Co805   2.031       .  S
O789        C795   1.260       .  A
O789       Co804   2.009       .  S
O790        C793   1.236       .  A
O790       Co807   1.906       .  S
O791        C792   1.269       .  A
O791       Co806   1.911       .  S
C794        C822   1.464       .  S
O796        C809   1.277       .  A
O796       Co804   1.995       .  S
O797        C810   1.263       .  A
O797       Co805   1.989       .  S
O798        C811   1.286       .  A
O798       Co806   2.064       .  S
O799        C812   1.275       .  A
O799       Co807   2.034       .  S
O800        C812   1.256       .  A
O800       Co805   1.946       .  S
O801        C811   1.269       .  A
O801       Co804   1.881       .  S
O802        C809   1.278       .  A
O802       Co807   1.994       .  S
O803        C810   1.271       .  A
O803       Co806   2.024       .  S
Co804       O808   2.021       .  S
Co805       O808   2.087       .  S
Co806       O808   1.987       .  S
Co807       O808   2.001       .  S
C810       C1334   1.487   1_556  S
C812        C986   1.469   1_655  S
O813        C821   1.295       .  A
O813       Co833   2.129       .  S
O814        C822   1.276       .  A
O814       Co834   2.065       .  S
O815        C823   1.258       .  A
O815       Co835   1.931       .  S
O816        C824   1.262       .  A
O816       Co836   1.983       .  S
O817        C823   1.266       .  A
O817       Co834   2.021       .  S
O818        C824   1.254       .  A
O818       Co833   1.980       .  S
O819        C822   1.243       .  A
O819       Co836   1.918       .  S
O820        C821   1.266       .  A
O820       Co835   1.905       .  S
O825        C838   1.285       .  A
O825       Co833   2.014       .  S
O826        C839   1.264       .  A
O826       Co834   1.973       .  S
O827        C840   1.284       .  A
O827       Co835   2.062       .  S
O828        C841   1.280       .  A
O828       Co836   2.042       .  S
O829        C841   1.256       .  A
O829       Co834   1.948       .  S
O830        C840   1.270       .  A
O830       Co833   1.878       .  S
O831        C838   1.270       .  A
O831       Co836   1.974       .  S
O832        C839   1.267       .  A
O832       Co835   2.023       .  S
Co833       O837   2.010       .  S
Co834       O837   2.078       .  S
Co835       O837   1.990       .  S
Co836       O837   1.998       .  S
C841       C1305   1.469   1_556  S
O842        C850   1.306       .  A
O842       Co862   2.129       .  S
O843        C851   1.285       .  A
O843       Co863   2.105       .  S
O844        C852   1.245       .  A
O844       Co864   1.911       .  S
O845        C853   1.250       .  A
O845       Co865   1.945       .  S
O846        C852   1.264       .  A
O846       Co863   2.053       .  S
O847        C853   1.289       .  A
O847       Co862   2.105       .  S
O848        C851   1.243       .  A
O848       Co865   1.926       .  S
O849        C850   1.259       .  A
O849       Co864   1.946       .  S
C850        C937   1.492       .  S
C851        C880   1.493       .  S
C852        C911   1.468       .  S
C853        C995   1.483       .  S
O854        C867   1.269       .  A
O854       Co862   1.854       .  S
O855        C868   1.256       .  A
O855       Co863   1.979       .  S
O856        C869   1.269       .  A
O856       Co864   2.015       .  S
O857        C870   1.265       .  A
O857       Co865   2.047       .  S
O858        C870   1.252       .  A
O858       Co863   1.972       .  S
O859        C869   1.263       .  A
O859       Co862   1.989       .  S
O860        C867   1.293       .  A
O860       Co865   2.069       .  S
O861        C868   1.282       .  A
O861       Co864   2.063       .  S
Co862       O866   1.949       .  S
Co863       O866   2.132       .  S
Co864       O866   2.053       .  S
Co865       O866   2.122       .  S
C868       C1102   1.503       .  S
O871        C879   1.267       .  A
O871       Co891   1.995       .  S
O872        C880   1.268       .  A
O872       Co892   1.973       .  S
O873        C881   1.291       .  A
O873       Co893   2.108       .  S
O874        C882   1.271       .  A
O874       Co894   2.046       .  S
O875        C881   1.271       .  A
O875       Co892   1.894       .  S
O876        C882   1.245       .  A
O876       Co891   1.918       .  S
O877        C880   1.273       .  A
O877       Co894   2.055       .  S
O878        C879   1.258       .  A
O878       Co893   1.998       .  S
C879        C966   1.473       .  S
C881        C997   1.457       .  S
C882        C909   1.451       .  S
O883        C896   1.279       .  A
O883       Co891   2.050       .  S
O884        C897   1.295       .  A
O884       Co892   2.107       .  S
O885        C898   1.283       .  A
O885       Co893   2.008       .  S
O886        C899   1.266       .  A
O886       Co894   1.987       .  S
O887        C899   1.271       .  A
O887       Co892   2.015       .  S
O888        C898   1.271       .  A
O888       Co891   1.972       .  S
O889        C896   1.267       .  A
O889       Co894   1.968       .  S
O890        C897   1.268       .  A
O890       Co893   1.886       .  S
Co891       O895   2.008       .  S
Co892       O895   1.998       .  S
Co893       O895   2.016       .  S
Co894       O895   2.091       .  S
O900        C908   1.251       .  A
O900       Co920   1.975       .  S
O901        C909   1.261       .  A
O901       Co921   1.930       .  S
O902        C910   1.288       .  A
O902       Co922   2.091       .  S
O903        C911   1.266       .  A
O903       Co923   2.080       .  S
O904        C910   1.267       .  A
O904       Co921   1.914       .  S
O905        C911   1.238       .  A
O905       Co920   1.919       .  S
O906        C909   1.271       .  A
O906       Co923   2.031       .  S
O907        C908   1.281       .  A
O907       Co922   2.040       .  S
C908        C940   1.497       .  S
C910        C968   1.469       .  S
O912        C925   1.271       .  A
O912       Co920   2.001       .  S
O913        C926   1.285       .  A
O913       Co921   2.055       .  S
O914        C927   1.280       .  A
O914       Co922   2.003       .  S
O915        C928   1.254       .  A
O915       Co923   1.959       .  S
O916        C928   1.266       .  A
O916       Co921   2.029       .  S
O917        C927   1.284       .  A
O917       Co920   2.020       .  S
O918        C925   1.251       .  A
O918       Co923   1.936       .  S
O919        C926   1.280       .  A
O919       Co922   1.933       .  S
Co920       O924   1.994       .  S
Co921       O924   2.002       .  S
Co922       O924   2.026       .  S
Co923       O924   2.107       .  S
C925       C1044   1.441       .  S
O929        C937   1.310       .  A
O929       Co949   2.096       .  S
O930        C938   1.277       .  A
O930       Co950   2.049       .  S
O931        C939   1.265       .  A
O931       Co951   1.961       .  S
O932        C940   1.239       .  A
O932       Co952   1.908       .  S
O933        C939   1.279       .  A
O933       Co950   2.048       .  S
O934        C940   1.301       .  A
O934       Co949   2.108       .  S
O935        C938   1.256       .  A
O935       Co952   1.908       .  S
O936        C937   1.274       .  A
O936       Co951   1.944       .  S
C938        C967   1.452       .  S
C939        C998   1.480       .  S
O941        C954   1.257       .  A
O941       Co949   1.954       .  S
O942        C955   1.262       .  A
O942       Co950   1.977       .  S
O943        C956   1.281       .  A
O943       Co951   2.083       .  S
O944        C957   1.245       .  A
O944       Co952   1.954       .  S
O945        C957   1.265       .  A
O945       Co950   2.017       .  S
O946        C956   1.263       .  A
O946       Co949   1.922       .  S
O947        C954   1.265       .  A
O947       Co952   1.981       .  S
O948        C955   1.279       .  A
O948       Co951   2.048       .  S
Co949       O953   2.006       .  S
Co950       O953   2.054       .  S
Co951       O953   2.030       .  S
Co952       O953   2.044       .  S
O958        C966   1.269       .  A
O958       Co978   1.915       .  S
O959        C967   1.249       .  A
O959       Co979   1.932       .  S
O960        C968   1.259       .  A
O960       Co980   1.998       .  S
O961        C969   1.271       .  A
O961       Co981   2.035       .  S
O962        C968   1.265       .  A
O962       Co979   1.993       .  S
O963        C969   1.262       .  A
O963       Co978   1.932       .  S
O964        C967   1.268       .  A
O964       Co981   2.043       .  S
O965        C966   1.289       .  A
O965       Co980   2.108       .  S
C969        C996   1.457       .  S
O970        C983   1.270       .  A
O970       Co978   2.020       .  S
O971        C984   1.277       .  A
O971       Co979   1.989       .  S
O972        C985   1.270       .  A
O972       Co980   1.881       .  S
O973        C986   1.267       .  A
O973       Co981   1.958       .  S
O974        C986   1.275       .  A
O974       Co979   2.033       .  S
O975        C985   1.284       .  A
O975       Co978   2.063       .  S
O976        C983   1.264       .  A
O976       Co981   1.983       .  S
O977        C984   1.280       .  A
O977       Co980   1.997       .  S
Co978       O982   1.987       .  S
Co979       O982   1.994       .  S
Co980       O982   2.010       .  S
Co981       O982   2.081       .  S
C983       C1131   1.480   1_556  S
O987        C995   1.264       .  A
O987      Co1007   1.917       .  S
O988        C996   1.242       .  A
O988      Co1008   1.918       .  S
O989        C997   1.252       .  A
O989      Co1009   1.975       .  S
O990        C998   1.278       .  A
O990      Co1010   2.053       .  S
O991        C997   1.263       .  A
O991      Co1008   1.989       .  S
O992        C998   1.259       .  A
O992      Co1007   1.959       .  S
O993        C996   1.270       .  A
O993      Co1010   2.051       .  S
O994        C995   1.300       .  A
O994      Co1009   2.141       .  S
O999       C1012   1.267       .  A
O999      Co1007   2.023       .  S
O1000      C1013   1.271       .  A
O1000     Co1008   1.980       .  S
O1001      C1014   1.266       .  A
O1001     Co1009   1.864       .  S
O1002      C1015   1.268       .  A
O1002     Co1010   1.982       .  S
O1003      C1015   1.280       .  A
O1003     Co1008   2.054       .  S
O1004      C1014   1.290       .  A
O1004     Co1007   2.078       .  S
O1005      C1012   1.266       .  A
O1005     Co1010   1.989       .  S
O1006      C1013   1.283       .  A
O1006     Co1009   2.018       .  S
Co1007     O1011   2.008       .  S
Co1008     O1011   2.004       .  S
Co1009     O1011   2.018       .  S
Co1010     O1011   2.086       .  S
C1015      C1189   1.497   1_556  S
O1016      C1024   1.263       .  A
O1016     Co1036   1.875       .  S
O1017      C1025   1.255       .  A
O1017     Co1037   1.912       .  S
O1018      C1026   1.284       .  A
O1018     Co1038   2.040       .  S
O1019      C1027   1.266       .  A
O1019     Co1039   2.012       .  S
O1020      C1026   1.253       .  A
O1020     Co1037   1.945       .  S
O1021      C1027   1.261       .  A
O1021     Co1036   1.954       .  S
O1022      C1025   1.285       .  A
O1022     Co1039   2.054       .  S
O1023      C1024   1.322       .  A
O1023     Co1038   2.167       .  S
C1024      C1111   1.464       .  S
C1025      C1083   1.444       .  S
C1026      C1142   1.470       .  S
C1027      C1055   1.457       .  S
O1028      C1041   1.266       .  A
O1028     Co1036   2.021       .  S
O1029      C1042   1.246       .  A
O1029     Co1037   1.952       .  S
O1030      C1043   1.251       .  A
O1030     Co1038   1.876       .  S
O1031      C1044   1.260       .  A
O1031     Co1039   1.983       .  S
O1032      C1044   1.250       .  A
O1032     Co1037   1.956       .  S
O1033      C1043   1.289       .  A
O1033     Co1036   2.105       .  S
O1034      C1041   1.268       .  A
O1034     Co1039   1.979       .  S
O1035      C1042   1.259       .  A
O1035     Co1038   1.987       .  S
Co1036     O1040   2.012       .  S
Co1037     O1040   2.053       .  S
Co1038     O1040   1.995       .  S
Co1039     O1040   2.048       .  S
C1041      C1390   1.475       .  S
O1045      C1053   1.282       .  A
O1045     Co1065   2.047       .  S
O1046      C1054   1.262       .  A
O1046     Co1066   2.003       .  S
O1047      C1055   1.258       .  A
O1047     Co1067   1.933       .  S
O1048      C1056   1.271       .  A
O1048     Co1068   1.894       .  S
O1049      C1055   1.280       .  A
O1049     Co1066   2.041       .  S
O1050      C1056   1.318       .  A
O1050     Co1065   2.154       .  S
O1051      C1054   1.259       .  A
O1051     Co1068   1.945       .  S
O1052      C1053   1.250       .  A
O1052     Co1067   1.933       .  S
C1053      C1113   1.477       .  S
C1054      C1084   1.443       .  S
C1056      C1172   1.475       .  S
O1057      C1070   1.253       .  A
O1057     Co1065   1.895       .  S
O1058      C1071   1.253       .  A
O1058     Co1066   1.963       .  S
O1059      C1072   1.256       .  A
O1059     Co1067   1.952       .  S
O1060      C1073   1.276       .  A
O1060     Co1068   2.014       .  S
O1061      C1073   1.255       .  A
O1061     Co1066   1.941       .  S
O1062      C1072   1.262       .  A
O1062     Co1065   1.972       .  S
O1063      C1070   1.286       .  A
O1063     Co1068   2.105       .  S
O1064      C1071   1.257       .  A
O1064     Co1067   2.003       .  S
Co1065     O1069   2.003       .  S
Co1066     O1069   2.051       .  S
Co1067     O1069   2.046       .  S
Co1068     O1069   2.011       .  S
C1071      C1421   1.463       .  S
C1073      C1276   1.441       .  S
O1074      C1082   1.301       .  A
O1074     Co1094   2.119       .  S
O1075      C1083   1.251       .  A
O1075     Co1095   1.925       .  S
O1076      C1084   1.253       .  A
O1076     Co1096   1.924       .  S
O1077      C1085   1.239       .  A
O1077     Co1097   1.970       .  S
O1078      C1084   1.274       .  A
O1078     Co1095   2.017       .  S
O1079      C1085   1.281       .  A
O1079     Co1094   2.087       .  S
O1080      C1083   1.283       .  A
O1080     Co1097   2.018       .  S
O1081      C1082   1.253       .  A
O1081     Co1096   1.940       .  S
C1082      C1169   1.504       .  S
C1085      C1140   1.484       .  S
O1086      C1099   1.273       .  A
O1086     Co1094   1.924       .  S
O1087      C1100   1.262       .  A
O1087     Co1095   1.982       .  S
O1088      C1101   1.256       .  A
O1088     Co1096   1.970       .  S
O1089      C1102   1.260       .  A
O1089     Co1097   1.987       .  S
O1090      C1102   1.260       .  A
O1090     Co1095   2.020       .  S
O1091      C1101   1.258       .  A
O1091     Co1094   1.979       .  S
O1092      C1099   1.298       .  A
O1092     Co1097   1.985       .  S
O1093      C1100   1.263       .  A
O1093     Co1096   2.000       .  S
Co1094     O1098   2.051       .  S
Co1095     O1098   2.088       .  S
Co1096     O1098   2.052       .  S
Co1097     O1098   2.030       .  S
C1100      C1244   1.469       .  S
O1103      C1111   1.252       .  A
O1103     Co1123   1.961       .  S
O1104      C1112   1.266       .  A
O1104     Co1124   1.951       .  S
O1105      C1113   1.299       .  A
O1105     Co1125   2.115       .  S
O1106      C1114   1.276       .  A
O1106     Co1126   2.074       .  S
O1107      C1113   1.270       .  A
O1107     Co1124   1.920       .  S
O1108      C1114   1.232       .  A
O1108     Co1123   1.899       .  S
O1109      C1112   1.267       .  A
O1109     Co1126   2.040       .  S
O1110      C1111   1.264       .  A
O1110     Co1125   2.010       .  S
C1112      C1170   1.473       .  S
C1114      C1141   1.458       .  S
O1115      C1128   1.275       .  A
O1115     Co1123   2.038       .  S
O1116      C1129   1.296       .  A
O1116     Co1124   2.109       .  S
O1117      C1130   1.285       .  A
O1117     Co1125   2.018       .  S
O1118      C1131   1.266       .  A
O1118     Co1126   1.984       .  S
O1119      C1131   1.272       .  A
O1119     Co1124   2.020       .  S
O1120      C1130   1.273       .  A
O1120     Co1123   1.986       .  S
O1121      C1128   1.260       .  A
O1121     Co1126   1.958       .  S
O1122      C1129   1.272       .  A
O1122     Co1125   1.889       .  S
Co1123     O1127   2.011       .  S
Co1124     O1127   2.002       .  S
Co1125     O1127   2.010       .  S
Co1126     O1127   2.097       .  S
C1128      C1332   1.475   1_455  S
O1132      C1140   1.244       .  A
O1132     Co1152   1.962       .  S
O1133      C1141   1.268       .  A
O1133     Co1153   1.946       .  S
O1134      C1142   1.295       .  A
O1134     Co1154   2.102       .  S
O1135      C1143   1.275       .  A
O1135     Co1155   2.077       .  S
O1136      C1142   1.267       .  A
O1136     Co1153   1.914       .  S
O1137      C1143   1.231       .  A
O1137     Co1152   1.900       .  S
O1138      C1141   1.264       .  A
O1138     Co1155   2.021       .  S
O1139      C1140   1.272       .  A
O1139     Co1154   2.053       .  S
C1143      C1171   1.457       .  S
O1144      C1157   1.272       .  A
O1144     Co1152   2.020       .  S
O1145      C1158   1.294       .  A
O1145     Co1153   2.092       .  S
O1146      C1159   1.273       .  A
O1146     Co1154   1.997       .  S
O1147      C1160   1.270       .  A
O1147     Co1155   1.990       .  S
O1148      C1160   1.267       .  A
O1148     Co1153   2.017       .  S
O1149      C1159   1.284       .  A
O1149     Co1152   2.027       .  S
O1150      C1157   1.261       .  A
O1150     Co1155   1.956       .  S
O1151      C1158   1.272       .  A
O1151     Co1154   1.880       .  S
Co1152     O1156   1.993       .  S
Co1153     O1156   1.981       .  S
Co1154     O1156   2.013       .  S
Co1155     O1156   2.094       .  S
C1157      C1477   1.462   1_565  S
C1160      C1360   1.482   1_455  S
O1161      C1169   1.299       .  A
O1161     Co1181   2.117       .  S
O1162      C1170   1.278       .  A
O1162     Co1182   2.084       .  S
O1163      C1171   1.267       .  A
O1163     Co1183   1.940       .  S
O1164      C1172   1.253       .  A
O1164     Co1184   1.970       .  S
O1165      C1171   1.265       .  A
O1165     Co1182   2.024       .  S
O1166      C1172   1.266       .  A
O1166     Co1181   2.023       .  S
O1167      C1170   1.237       .  A
O1167     Co1184   1.912       .  S
O1168      C1169   1.271       .  A
O1168     Co1183   1.951       .  S
O1173      C1186   1.277       .  A
O1173     Co1181   1.999       .  S
O1174      C1187   1.271       .  A
O1174     Co1182   1.990       .  S
O1175      C1188   1.290       .  A
O1175     Co1183   2.084       .  S
O1176      C1189   1.277       .  A
O1176     Co1184   2.049       .  S
O1177      C1189   1.265       .  A
O1177     Co1182   1.979       .  S
O1178      C1188   1.271       .  A
O1178     Co1181   1.880       .  S
O1179      C1186   1.276       .  A
O1179     Co1184   1.994       .  S
O1180      C1187   1.272       .  A
O1180     Co1183   2.025       .  S
Co1181     O1185   2.022       .  S
Co1182     O1185   2.094       .  S
Co1183     O1185   2.007       .  S
Co1184     O1185   2.008       .  S
C1187      C1505   1.486   1_565  S
O1190      C1198   1.311       .  A
O1190     Co1210   2.166       .  S
O1191      C1199   1.262       .  A
O1191     Co1211   1.947       .  S
O1192      C1200   1.240       .  A
O1192     Co1212   1.923       .  S
O1193      C1201   1.257       .  A
O1193     Co1213   1.984       .  S
O1194      C1200   1.259       .  A
O1194     Co1211   1.996       .  S
O1195      C1201   1.276       .  A
O1195     Co1210   2.048       .  S
O1196      C1199   1.286       .  A
O1196     Co1213   2.020       .  S
O1197      C1198   1.251       .  A
O1197     Co1212   1.920       .  S
C1198      C1314   1.485       .  S
C1199      C1228   1.456       .  S
C1200      C1259   1.426       .  S
C1201      C1343   1.474       .  S
O1202      C1215   1.290       .  A
O1202     Co1210   1.963       .  S
O1203      C1216   1.269       .  A
O1203     Co1211   1.958       .  S
O1204      C1217   1.263       .  A
O1204     Co1212   1.973       .  S
O1205      C1218   1.257       .  A
O1205     Co1213   1.994       .  S
O1206      C1218   1.250       .  A
O1206     Co1211   1.986       .  S
O1207      C1217   1.268       .  A
O1207     Co1210   1.987       .  S
O1208      C1215   1.295       .  A
O1208     Co1213   1.953       .  S
O1209      C1216   1.278       .  A
O1209     Co1212   2.031       .  S
Co1210     O1214   2.027       .  S
Co1211     O1214   2.086       .  S
Co1212     O1214   1.996       .  S
Co1213     O1214   2.007       .  S
C1216      C1621   1.465       .  S
O1219      C1227   1.266       .  A
O1219     Co1239   1.991       .  S
O1220      C1228   1.257       .  A
O1220     Co1240   1.941       .  S
O1221      C1229   1.288       .  A
O1221     Co1241   2.103       .  S
O1222      C1230   1.268       .  A
O1222     Co1242   2.063       .  S
O1223      C1229   1.270       .  A
O1223     Co1240   1.905       .  S
O1224      C1230   1.252       .  A
O1224     Co1239   1.951       .  S
O1225      C1228   1.277       .  A
O1225     Co1242   2.036       .  S
O1226      C1227   1.261       .  A
O1226     Co1241   1.994       .  S
C1227      C1285   1.467       .  S
C1229      C1345   1.462       .  S
C1230      C1257   1.479       .  S
O1231      C1244   1.278       .  A
O1231     Co1239   2.034       .  S
O1232      C1245   1.289       .  A
O1232     Co1240   2.073       .  S
O1233      C1246   1.282       .  A
O1233     Co1241   2.001       .  S
O1234      C1247   1.259       .  A
O1234     Co1242   1.979       .  S
O1235      C1247   1.268       .  A
O1235     Co1240   2.014       .  S
O1236      C1246   1.277       .  A
O1236     Co1239   2.002       .  S
O1237      C1244   1.263       .  A
O1237     Co1242   1.958       .  S
O1238      C1245   1.270       .  A
O1238     Co1241   1.905       .  S
Co1239     O1243   2.005       .  S
Co1240     O1243   2.019       .  S
Co1241     O1243   2.016       .  S
Co1242     O1243   2.085       .  S
C1245      C1740   1.464       .  S
O1248      C1256   1.267       .  A
O1248     Co1268   1.906       .  S
O1249      C1257   1.257       .  A
O1249     Co1269   1.925       .  S
O1250      C1258   1.295       .  A
O1250     Co1270   2.079       .  S
O1251      C1259   1.262       .  A
O1251     Co1271   1.987       .  S
O1252      C1258   1.237       .  A
O1252     Co1269   1.902       .  S
O1253      C1259   1.257       .  A
O1253     Co1268   1.935       .  S
O1254      C1257   1.284       .  A
O1254     Co1271   2.076       .  S
O1255      C1256   1.313       .  A
O1255     Co1270   2.128       .  S
C1256      C1317   1.478       .  S
C1258      C1287   1.473       .  S
O1260      C1273   1.273       .  A
O1260     Co1268   2.039       .  S
O1261      C1274   1.269       .  A
O1261     Co1269   1.987       .  S
O1262      C1275   1.262       .  A
O1262     Co1270   1.917       .  S
O1263      C1276   1.258       .  A
O1263     Co1271   1.975       .  S
O1264      C1276   1.247       .  A
O1264     Co1269   1.952       .  S
O1265      C1275   1.282       .  A
O1265     Co1268   2.079       .  S
O1266      C1273   1.269       .  A
O1266     Co1271   1.989       .  S
O1267      C1274   1.265       .  A
O1267     Co1270   1.979       .  S
Co1268     O1272   2.012       .  S
Co1269     O1272   2.052       .  S
Co1270     O1272   2.006       .  S
Co1271     O1272   2.066       .  S
C1273      C1566   1.491       .  S
O1277      C1285   1.265       .  A
O1277     Co1297   1.907       .  S
O1278      C1286   1.236       .  A
O1278     Co1298   1.890       .  S
O1279      C1287   1.272       .  A
O1279     Co1299   2.022       .  S
O1280      C1288   1.278       .  A
O1280     Co1300   2.062       .  S
O1281      C1287   1.242       .  A
O1281     Co1298   1.959       .  S
O1282      C1288   1.265       .  A
O1282     Co1297   1.951       .  S
O1283      C1286   1.263       .  A
O1283     Co1300   2.042       .  S
O1284      C1285   1.289       .  A
O1284     Co1299   2.102       .  S
C1286      C1315   1.437       .  S
C1288      C1344   1.480       .  S
O1289      C1302   1.263       .  A
O1289     Co1297   2.003       .  S
O1290      C1303   1.287       .  A
O1290     Co1298   2.022       .  S
O1291      C1304   1.274       .  A
O1291     Co1299   1.901       .  S
O1292      C1305   1.268       .  A
O1292     Co1300   1.978       .  S
O1293      C1305   1.265       .  A
O1293     Co1298   2.002       .  S
O1294      C1304   1.288       .  A
O1294     Co1297   2.070       .  S
O1295      C1302   1.262       .  A
O1295     Co1300   1.975       .  S
O1296      C1303   1.274       .  A
O1296     Co1299   1.992       .  S
Co1297     O1301   1.990       .  S
Co1298     O1301   1.987       .  S
Co1299     O1301   2.020       .  S
Co1300     O1301   2.090       .  S
C1302      C1651   1.466   1_565  S
O1306      C1314   1.297       .  A
O1306     Co1326   2.118       .  S
O1307      C1315   1.254       .  A
O1307     Co1327   2.026       .  S
O1308      C1316   1.258       .  A
O1308     Co1328   1.940       .  S
O1309      C1317   1.263       .  A
O1309     Co1329   1.988       .  S
O1310      C1316   1.288       .  A
O1310     Co1327   2.080       .  S
O1311      C1317   1.268       .  A
O1311     Co1326   2.008       .  S
O1312      C1315   1.244       .  A
O1312     Co1329   1.917       .  S
O1313      C1314   1.262       .  A
O1313     Co1328   1.938       .  S
C1316      C1346   1.478       .  S
O1318      C1331   1.283       .  A
O1318     Co1326   2.013       .  S
O1319      C1332   1.258       .  A
O1319     Co1327   1.976       .  S
O1320      C1333   1.281       .  A
O1320     Co1328   2.042       .  S
O1321      C1334   1.279       .  A
O1321     Co1329   2.042       .  S
O1322      C1334   1.270       .  A
O1322     Co1327   1.976       .  S
O1323      C1333   1.277       .  A
O1323     Co1326   1.888       .  S
O1324      C1331   1.274       .  A
O1324     Co1329   1.997       .  S
O1325      C1332   1.263       .  A
O1325     Co1328   2.020       .  S
Co1326     O1330   2.017       .  S
Co1327     O1330   2.088       .  S
Co1328     O1330   2.006       .  S
Co1329     O1330   1.992       .  S
O1335      C1343   1.270       .  A
O1335     Co1355   1.895       .  S
O1336      C1344   1.247       .  A
O1336     Co1356   1.934       .  S
O1337      C1345   1.257       .  A
O1337     Co1357   1.984       .  S
O1338      C1346   1.268       .  A
O1338     Co1358   2.028       .  S
O1339      C1345   1.268       .  A
O1339     Co1356   1.990       .  S
O1340      C1346   1.265       .  A
O1340     Co1355   1.975       .  S
O1341      C1344   1.276       .  A
O1341     Co1358   2.076       .  S
O1342      C1343   1.295       .  A
O1342     Co1357   2.125       .  S
O1347      C1360   1.272       .  A
O1347     Co1355   2.038       .  S
O1348      C1361   1.271       .  A
O1348     Co1356   1.997       .  S
O1349      C1362   1.270       .  A
O1349     Co1357   1.887       .  S
O1350      C1363   1.242       .  A
O1350     Co1358   1.913       .  S
O1351      C1363   1.282       .  A
O1351     Co1356   2.029       .  S
O1352      C1362   1.293       .  A
O1352     Co1355   2.092       .  S
O1353      C1360   1.253       .  A
O1353     Co1358   1.964       .  S
O1354      C1361   1.288       .  A
O1354     Co1357   2.028       .  S
Co1355     O1359   1.991       .  S
Co1356     O1359   2.004       .  S
Co1357     O1359   2.018       .  S
Co1358     O1359   2.095       .  S
C1361      C1721   1.510       .  S
C1363      C1682   1.440   1_565  S
O1364      C1372   1.303       .  A
O1364     Co1384   2.143       .  S
O1365      C1373   1.265       .  A
O1365     Co1385   2.055       .  S
O1366      C1374   1.253       .  A
O1366     Co1386   1.933       .  S
O1367      C1375   1.266       .  A
O1367     Co1387   1.982       .  S
O1368      C1374   1.278       .  A
O1368     Co1385   2.032       .  S
O1369      C1375   1.263       .  A
O1369     Co1384   1.985       .  S
O1370      C1373   1.248       .  A
O1370     Co1387   1.938       .  S
O1371      C1372   1.265       .  A
O1371     Co1386   1.932       .  S
C1372      C1517   1.496       .  S
C1373      C1431   1.466       .  S
C1374      C1402   1.451       .  S
C1375      C1462   1.456       .  S
O1376      C1389   1.287       .  A
O1376     Co1384   2.026       .  S
O1377      C1390   1.248       .  A
O1377     Co1385   1.949       .  S
O1378      C1391   1.295       .  A
O1378     Co1386   2.090       .  S
O1379      C1392   1.285       .  A
O1379     Co1387   2.046       .  S
O1380      C1392   1.253       .  A
O1380     Co1385   1.938       .  S
O1381      C1391   1.274       .  A
O1381     Co1384   1.881       .  S
O1382      C1389   1.268       .  A
O1382     Co1387   1.985       .  S
O1383      C1390   1.271       .  A
O1383     Co1386   2.042       .  S
Co1384     O1388   2.003       .  S
Co1385     O1388   2.077       .  S
Co1386     O1388   2.011       .  S
Co1387     O1388   1.993       .  S
O1393      C1401   1.305       .  A
O1393     Co1413   2.095       .  S
O1394      C1402   1.266       .  A
O1394     Co1414   2.001       .  S
O1395      C1403   1.246       .  A
O1395     Co1415   1.907       .  S
O1396      C1404   1.276       .  A
O1396     Co1416   1.901       .  S
O1397      C1403   1.281       .  A
O1397     Co1414   2.049       .  S
O1398      C1404   1.307       .  A
O1398     Co1413   2.089       .  S
O1399      C1402   1.267       .  A
O1399     Co1416   1.956       .  S
O1400      C1401   1.226       .  A
O1400     Co1415   1.876       .  S
C1401      C1490   1.467       .  S
C1403      C1433   1.441       .  S
C1404      C1520   1.465       .  S
O1405      C1418   1.255       .  A
O1405     Co1413   1.919       .  S
O1406      C1419   1.256       .  A
O1406     Co1414   1.975       .  S
O1407      C1420   1.269       .  A
O1407     Co1415   1.992       .  S
O1408      C1421   1.277       .  A
O1408     Co1416   2.034       .  S
O1409      C1421   1.261       .  A
O1409     Co1414   1.954       .  S
O1410      C1420   1.247       .  A
O1410     Co1413   1.913       .  S
O1411      C1418   1.285       .  A
O1411     Co1416   2.104       .  S
O1412      C1419   1.242       .  A
O1412     Co1415   1.941       .  S
Co1413     O1417   1.975       .  S
Co1414     O1417   2.040       .  S
Co1415     O1417   2.047       .  S
Co1416     O1417   2.015       .  S
C1419      C1563   1.433       .  S
O1422      C1430   1.281       .  A
O1422     Co1442   1.935       .  S
O1423      C1431   1.259       .  A
O1423     Co1443   1.919       .  S
O1424      C1432   1.303       .  A
O1424     Co1444   2.112       .  S
O1425      C1433   1.262       .  A
O1425     Co1445   1.993       .  S
O1426      C1432   1.229       .  A
O1426     Co1443   1.881       .  S
O1427      C1433   1.265       .  A
O1427     Co1442   1.951       .  S
O1428      C1431   1.283       .  A
O1428     Co1445   2.069       .  S
O1429      C1430   1.307       .  A
O1429     Co1444   2.097       .  S
C1430      C1488   1.486       .  S
C1432      C1459   1.476       .  S
O1434      C1447   1.289       .  A
O1434     Co1442   2.070       .  S
O1435      C1448   1.273       .  A
O1435     Co1443   1.998       .  S
O1436      C1449   1.260       .  A
O1436     Co1444   1.918       .  S
O1437      C1450   1.255       .  A
O1437     Co1445   1.974       .  S
O1438      C1450   1.237       .  A
O1438     Co1443   1.924       .  S
O1439      C1449   1.280       .  A
O1439     Co1442   2.085       .  S
O1440      C1447   1.267       .  A
O1440     Co1445   1.974       .  S
O1441      C1448   1.253       .  A
O1441     Co1444   1.940       .  S
Co1442     O1446   2.009       .  S
Co1443     O1446   2.049       .  S
Co1444     O1446   1.994       .  S
Co1445     O1446   2.063       .  S
C1447      C1593   1.501       .  S
O1451      C1459   1.273       .  A
O1451     Co1471   2.033       .  S
O1452      C1460   1.262       .  A
O1452     Co1472   2.004       .  S
O1453      C1461   1.224       .  A
O1453     Co1473   1.892       .  S
O1454      C1462   1.266       .  A
O1454     Co1474   1.894       .  S
O1455      C1461   1.278       .  A
O1455     Co1472   2.078       .  S
O1456      C1462   1.291       .  A
O1456     Co1471   2.095       .  S
O1457      C1460   1.266       .  A
O1457     Co1474   1.953       .  S
O1458      C1459   1.239       .  A
O1458     Co1473   1.949       .  S
C1460      C1519   1.449       .  S
C1461      C1491   1.453       .  S
O1463      C1476   1.273       .  A
O1463     Co1471   1.906       .  S
O1464      C1477   1.257       .  A
O1464     Co1472   1.955       .  S
O1465      C1478   1.280       .  A
O1465     Co1473   2.003       .  S
O1466      C1479   1.265       .  A
O1466     Co1474   2.021       .  S
O1467      C1479   1.270       .  A
O1467     Co1472   1.992       .  S
O1468      C1478   1.275       .  A
O1468     Co1471   1.983       .  S
O1469      C1476   1.292       .  A
O1469     Co1474   2.084       .  S
O1470      C1477   1.269       .  A
O1470     Co1473   2.016       .  S
Co1471     O1475   2.008       .  S
Co1472     O1475   2.083       .  S
Co1473     O1475   2.006       .  S
Co1474     O1475   1.989       .  S
C1479      C1680   1.487   1_455  S
O1480      C1488   1.284       .  A
O1480     Co1500   1.928       .  S
O1481      C1489   1.250       .  A
O1481     Co1501   1.920       .  S
O1482      C1490   1.306       .  A
O1482     Co1502   2.101       .  S
O1483      C1491   1.256       .  A
O1483     Co1503   1.992       .  S
O1484      C1490   1.225       .  A
O1484     Co1501   1.875       .  S
O1485      C1491   1.274       .  A
O1485     Co1500   1.966       .  S
O1486      C1489   1.290       .  A
O1486     Co1503   2.084       .  S
O1487      C1488   1.308       .  A
O1487     Co1502   2.096       .  S
C1489      C1518   1.471       .  S
O1492      C1505   1.288       .  A
O1492     Co1500   2.053       .  S
O1493      C1506   1.274       .  A
O1493     Co1501   2.003       .  S
O1494      C1507   1.255       .  A
O1494     Co1502   1.927       .  S
O1495      C1508   1.256       .  A
O1495     Co1503   1.982       .  S
O1496      C1508   1.241       .  A
O1496     Co1501   1.944       .  S
O1497      C1507   1.289       .  A
O1497     Co1500   2.118       .  S
O1498      C1505   1.269       .  A
O1498     Co1503   1.968       .  S
O1499      C1506   1.249       .  A
O1499     Co1502   1.926       .  S
Co1500     O1504   2.016       .  S
Co1501     O1504   2.055       .  S
Co1502     O1504   1.990       .  S
Co1503     O1504   2.060       .  S
O1509      C1517   1.297       .  A
O1509     Co1529   2.097       .  S
O1510      C1518   1.263       .  A
O1510     Co1530   2.019       .  S
O1511      C1519   1.246       .  A
O1511     Co1531   1.901       .  S
O1512      C1520   1.281       .  A
O1512     Co1532   1.888       .  S
O1513      C1519   1.284       .  A
O1513     Co1530   2.062       .  S
O1514      C1520   1.311       .  A
O1514     Co1529   2.120       .  S
O1515      C1518   1.267       .  A
O1515     Co1532   1.969       .  S
O1516      C1517   1.246       .  A
O1516     Co1531   1.931       .  S
O1521      C1534   1.257       .  A
O1521     Co1529   1.886       .  S
O1522      C1535   1.261       .  A
O1522     Co1530   1.977       .  S
O1523      C1536   1.261       .  A
O1523     Co1531   1.965       .  S
O1524      C1537   1.288       .  A
O1524     Co1532   2.060       .  S
O1525      C1537   1.272       .  A
O1525     Co1530   1.984       .  S
O1526      C1536   1.258       .  A
O1526     Co1529   1.966       .  S
O1527      C1534   1.283       .  A
O1527     Co1532   2.096       .  S
O1528      C1535   1.256       .  A
O1528     Co1531   1.990       .  S
Co1529     O1533   1.980       .  S
Co1530     O1533   2.068       .  S
Co1531     O1533   2.053       .  S
Co1532     O1533   2.001       .  S
C1535      C1708   1.461   1_455  S
O1538      C1546   1.247       .  A
O1538     Co1558   1.964       .  S
O1539      C1547   1.263       .  A
O1539     Co1559   1.941       .  S
O1540      C1548   1.293       .  A
O1540     Co1560   2.083       .  S
O1541      C1549   1.275       .  A
O1541     Co1561   2.083       .  S
O1542      C1548   1.271       .  A
O1542     Co1559   1.923       .  S
O1543      C1549   1.233       .  A
O1543     Co1558   1.908       .  S
O1544      C1547   1.263       .  A
O1544     Co1561   2.019       .  S
O1545      C1546   1.277       .  A
O1545     Co1560   2.065       .  S
C1546      C1636   1.496       .  S
C1547      C1607   1.455       .  S
C1548      C1693   1.471       .  S
C1549      C1577   1.465       .  S
O1550      C1563   1.273       .  A
O1550     Co1558   2.011       .  S
O1551      C1564   1.289       .  A
O1551     Co1559   2.073       .  S
O1552      C1565   1.277       .  A
O1552     Co1560   2.004       .  S
O1553      C1566   1.258       .  A
O1553     Co1561   1.972       .  S
O1554      C1566   1.275       .  A
O1554     Co1559   2.046       .  S
O1555      C1565   1.282       .  A
O1555     Co1558   2.030       .  S
O1556      C1563   1.246       .  A
O1556     Co1561   1.919       .  S
O1557      C1564   1.276       .  A
O1557     Co1560   1.904       .  S
Co1558     O1562   2.003       .  S
Co1559     O1562   1.990       .  S
Co1560     O1562   2.016       .  S
Co1561     O1562   2.098       .  S
O1567      C1575   1.297       .  A
O1567     Co1587   2.111       .  S
O1568      C1576   1.268       .  A
O1568     Co1588   2.086       .  S
O1569      C1577   1.269       .  A
O1569     Co1589   1.944       .  S
O1570      C1578   1.250       .  A
O1570     Co1590   1.977       .  S
O1571      C1577   1.270       .  A
O1571     Co1588   2.035       .  S
O1572      C1578   1.282       .  A
O1572     Co1587   2.043       .  S
O1573      C1576   1.227       .  A
O1573     Co1590   1.905       .  S
O1574      C1575   1.268       .  A
O1574     Co1589   1.947       .  S
C1575      C1633   1.503       .  S
C1576      C1605   1.464       .  S
C1578      C1665   1.502       .  S
O1579      C1592   1.283       .  A
O1579     Co1587   2.012       .  S
O1580      C1593   1.268       .  A
O1580     Co1588   1.996       .  S
O1581      C1594   1.288       .  A
O1581     Co1589   2.067       .  S
O1582      C1595   1.276       .  A
O1582     Co1590   2.039       .  S
O1583      C1595   1.262       .  A
O1583     Co1588   1.969       .  S
O1584      C1594   1.279       .  A
O1584     Co1587   1.921       .  S
O1585      C1592   1.278       .  A
O1585     Co1590   2.013       .  S
O1586      C1593   1.270       .  A
O1586     Co1589   2.037       .  S
Co1587     O1591   2.025       .  S
Co1588     O1591   2.119       .  S
Co1589     O1591   2.018       .  S
Co1590     O1591   2.020       .  S
C1592      C1737   1.497       .  S
O1596      C1604   1.252       .  A
O1596     Co1616   1.918       .  S
O1597      C1605   1.259       .  A
O1597     Co1617   1.927       .  S
O1598      C1606   1.276       .  A
O1598     Co1618   2.067       .  S
O1599      C1607   1.275       .  A
O1599     Co1619   2.069       .  S
O1600      C1606   1.248       .  A
O1600     Co1617   1.940       .  S
O1601      C1607   1.238       .  A
O1601     Co1616   1.912       .  S
O1602      C1605   1.264       .  A
O1602     Co1619   2.041       .  S
O1603      C1604   1.309       .  A
O1603     Co1618   2.151       .  S
C1604      C1691   1.482       .  S
C1606      C1662   1.458       .  S
O1608      C1621   1.269       .  A
O1608     Co1616   2.029       .  S
O1609      C1622   1.308       .  A
O1609     Co1617   2.122       .  S
O1610      C1623   1.262       .  A
O1610     Co1618   1.973       .  S
O1611      C1624   1.258       .  A
O1611     Co1619   1.976       .  S
O1612      C1624   1.259       .  A
O1612     Co1617   1.985       .  S
O1613      C1623   1.269       .  A
O1613     Co1616   1.994       .  S
O1614      C1621   1.253       .  A
O1614     Co1619   1.951       .  S
O1615      C1622   1.274       .  A
O1615     Co1618   1.879       .  S
Co1616     O1620   2.043       .  S
Co1617     O1620   2.088       .  S
Co1618     O1620   1.951       .  S
Co1619     O1620   2.120       .  S
O1625      C1633   1.301       .  A
O1625     Co1645   2.126       .  S
O1626      C1634   1.257       .  A
O1626     Co1646   1.933       .  S
O1627      C1635   1.238       .  A
O1627     Co1647   1.917       .  S
O1628      C1636   1.241       .  A
O1628     Co1648   1.971       .  S
O1629      C1635   1.252       .  A
O1629     Co1646   1.977       .  S
O1630      C1636   1.279       .  A
O1630     Co1645   2.094       .  S
O1631      C1634   1.278       .  A
O1631     Co1648   1.995       .  S
O1632      C1633   1.259       .  A
O1632     Co1647   1.950       .  S
C1634      C1692   1.431       .  S
C1635      C1663   1.403       .  S
O1637      C1650   1.282       .  A
O1637     Co1645   1.929       .  S
O1638      C1651   1.262       .  A
O1638     Co1646   1.938       .  S
O1639      C1652   1.261       .  A
O1639     Co1647   1.964       .  S
O1640      C1653   1.259       .  A
O1640     Co1648   1.980       .  S
O1641      C1653   1.244       .  A
O1641     Co1646   1.961       .  S
O1642      C1652   1.271       .  A
O1642     Co1645   2.010       .  S
O1643      C1650   1.295       .  A
O1643     Co1648   1.951       .  S
O1644      C1651   1.285       .  A
O1644     Co1647   2.053       .  S
Co1645     O1649   2.030       .  S
Co1646     O1649   2.095       .  S
Co1647     O1649   1.977       .  S
Co1648     O1649   1.980       .  S
O1654      C1662   1.306       .  A
O1654     Co1674   2.076       .  S
O1655      C1663   1.267       .  A
O1655     Co1675   1.992       .  S
O1656      C1664   1.260       .  A
O1656     Co1676   1.976       .  S
O1657      C1665   1.235       .  A
O1657     Co1677   1.906       .  S
O1658      C1664   1.282       .  A
O1658     Co1675   2.069       .  S
O1659      C1665   1.302       .  A
O1659     Co1674   2.122       .  S
O1660      C1663   1.257       .  A
O1660     Co1677   1.900       .  S
O1661      C1662   1.274       .  A
O1661     Co1676   1.913       .  S
C1664      C1694   1.502       .  S
O1666      C1679   1.261       .  A
O1666     Co1674   1.971       .  S
O1667      C1680   1.256       .  A
O1667     Co1675   1.957       .  S
O1668      C1681   1.282       .  A
O1668     Co1676   2.080       .  S
O1669      C1682   1.237       .  A
O1669     Co1677   1.926       .  S
O1670      C1682   1.269       .  A
O1670     Co1675   2.004       .  S
O1671      C1681   1.265       .  A
O1671     Co1674   1.917       .  S
O1672      C1679   1.266       .  A
O1672     Co1677   1.977       .  S
O1673      C1680   1.282       .  A
O1673     Co1676   2.053       .  S
Co1674     O1678   1.992       .  S
Co1675     O1678   2.051       .  S
Co1676     O1678   2.010       .  S
Co1677     O1678   2.017       .  S
C1679      C1723   1.440       .  S
O1683      C1691   1.268       .  A
O1683     Co1703   1.905       .  S
O1684      C1692   1.259       .  A
O1684     Co1704   1.922       .  S
O1685      C1693   1.284       .  A
O1685     Co1705   2.038       .  S
O1686      C1694   1.282       .  A
O1686     Co1706   2.072       .  S
O1687      C1693   1.254       .  A
O1687     Co1704   1.935       .  S
O1688      C1694   1.267       .  A
O1688     Co1703   1.972       .  S
O1689      C1692   1.274       .  A
O1689     Co1706   2.013       .  S
O1690      C1691   1.323       .  A
O1690     Co1705   2.162       .  S
O1695      C1708   1.272       .  A
O1695     Co1703   2.024       .  S
O1696      C1709   1.255       .  A
O1696     Co1704   1.978       .  S
O1697      C1710   1.252       .  A
O1697     Co1705   1.865       .  S
O1698      C1711   1.263       .  A
O1698     Co1706   1.991       .  S
O1699      C1711   1.251       .  A
O1699     Co1704   1.969       .  S
O1700      C1710   1.285       .  A
O1700     Co1703   2.090       .  S
O1701      C1708   1.253       .  A
O1701     Co1706   1.953       .  S
O1702      C1709   1.258       .  A
O1702     Co1705   1.992       .  S
Co1703     O1707   2.030       .  S
Co1704     O1707   2.061       .  S
Co1705     O1707   2.001       .  S
Co1706     O1707   2.043       .  S
O1712      C1720   1.265       .  A
O1712     Co1732   2.003       .  S
O1713      C1721   1.268       .  A
O1713     Co1733   2.010       .  S
O1714      C1722   1.272       .  A
O1714     Co1734   2.000   1_565  S
O1715      C1723   1.262       .  A
O1715     Co1735   1.974       .  S
O1716      C1722   1.269       .  A
O1716     Co1733   2.017       .  S
O1717      C1723   1.265       .  A
O1717     Co1732   1.976       .  S
O1718      C1721   1.283       .  A
O1718     Co1735   2.051   1_565  S
O1719      C1720   1.271       .  A
O1719     Co1734   2.003       .  S
O1724      C1737   1.276       .  A
O1724     Co1732   2.031       .  S
O1725      C1738   1.275       .  A
O1725     Co1733   2.046       .  S
O1726      C1739   1.251       .  A
O1726     Co1734   1.940       .  S
O1727      C1740   1.255       .  A
O1727     Co1735   1.949   1_565  S
O1728      C1740   1.278       .  A
O1728     Co1733   2.042       .  S
O1729      C1739   1.275       .  A
O1729     Co1732   2.039       .  S
O1730      C1737   1.267       .  A
O1730     Co1735   2.004       .  S
O1731      C1738   1.250       .  A
O1731     Co1734   1.941   1_565  S
Co1732     O1736   2.114       .  S
Co1733     O1736   2.134   1_565  S
Co1734     O1736   2.074       .  S
Co1735     O1736   2.100       .  S
