geometry optimzed in LAMMPS
_audit_creation_date              2020-11-30 
_audit_creation_method            'lammps2cif' 
_symmetry_space_group_name_H-M    'P1' 
_symmetry_Int_Tables_number       1 
_symmetry_cell_setting            triclinic 
loop_ 
_symmetry_equiv_pos_as_xyz 
  x,y,z 
_cell_length_a                    35.47273208355333 
_cell_length_b                    44.75525729885874 
_cell_length_c                    48.84704881461258 
_cell_angle_alpha                 90.11021208711203 
_cell_angle_beta                  90.08876922883691 
_cell_angle_gamma                 90.38234721034904 
loop_ 
_atom_site_label 
_atom_site_type_symbol 
_atom_site_fract_x 
_atom_site_fract_y 
_atom_site_fract_z 
_atom_site_charge 
O1          O  0.99510168  0.04767588  0.15845319    -0.56250
C2          C  0.00273145  0.02926694  0.24462975     0.76380
O3          O  0.00360610  0.12176613  0.22221630    -0.57410
C4          C  0.98974642  0.07141367  0.14487396     0.76350
C5          C  0.90504162  0.07412818  0.20679747     0.78740
Cd6        Cd  0.98609388  0.07303396  0.20345766     1.37470
O7          O  0.00563604  0.02293340  0.21939552    -0.56250
O8          O  0.92348798  0.05092770  0.20110528    -0.55060
C9          C  0.03801646  0.12080266  0.21522315     0.78700
O10         O  0.92436565  0.09742125  0.21189896    -0.57430
O11         O  0.99594497  0.05617770  0.25061999    -0.55880
O12         O  0.98450004  0.09511246  0.15835118    -0.55870
O13         O  0.04870576  0.09707559  0.20336777    -0.55040
O14         O  0.00507900  0.51254566  0.29109469    -0.56250
C15         C  0.98733115  0.46576249  0.36534832     0.76380
O16         O  0.92007119  0.44617419  0.29043388    -0.57410
C17         C  0.00251980  0.50616347  0.26586047     0.76350
C18         C  0.03352325  0.41265894  0.29918669     0.78740
Cd19       Cd  0.98388729  0.46266698  0.30703110     1.37470
O20         O  0.99760617  0.48806136  0.35107549    -0.56250
O21         O  0.04459297  0.43705628  0.30979437    -0.55060
C22         C  0.90323275  0.46724259  0.30272236     0.78700
O23         O  0.99920255  0.41184637  0.29178685    -0.57430
O24         O  0.97700241  0.44244823  0.35262054    -0.55880
O25         O  0.99565564  0.47920779  0.25987360    -0.55870
O26         O  0.92364790  0.48407068  0.31730458    -0.55040
O27         O  0.72517586  0.01249468  0.29439783    -0.56250
C28         C  0.63591581  0.06811443  0.26761711     0.76380
O29         O  0.72608836  0.03396584  0.21238965    -0.57410
C30         C  0.74639338  0.49365220  0.28259872     0.76350
C31         C  0.63693885  0.47273328  0.23796553     0.78740
Cd32       Cd  0.68681976  0.02100797  0.25304141     1.37460
O33         O  0.64743949  0.04971475  0.28546911    -0.56250
O34         O  0.64575712  0.47866194  0.26251282    -0.55060
C35         C  0.74741170  0.05160956  0.22594212     0.78700
O36         O  0.65183832  0.48925439  0.21974207    -0.57430
O37         O  0.64742240  0.06435991  0.24333834    -0.55880
O38         O  0.73614527  0.48443625  0.25922922    -0.55870
O39         O  0.73730684  0.05684762  0.25025948    -0.55040
O40         O  0.50600629  0.26470629  0.28946313    -0.56250
C41         C  0.49072917  0.21574717  0.36424897     0.76380
O42         O  0.42100615  0.19651588  0.29257690    -0.57410
C43         C  0.50106445  0.25866668  0.26431529     0.76350
C44         C  0.53570457  0.16662605  0.29323316     0.78740
Cd45       Cd  0.48554608  0.21469054  0.30572040     1.37460
O46         O  0.49844291  0.23899230  0.35045095    -0.56250
O47         O  0.54771890  0.19135260  0.30268476    -0.55060
C48         C  0.40515963  0.21946503  0.30251545     0.78700
O49         O  0.50036847  0.16440854  0.28940213    -0.57430
O50         O  0.48275941  0.19224123  0.35098957    -0.55880
O51         O  0.49304217  0.23187925  0.25838488    -0.55870
O52         O  0.42633588  0.23814139  0.31441513    -0.55040
O53         O  0.50247085  0.27591863  0.21793366    -0.56250
C54         C  0.48649008  0.32401982  0.14400898     0.76380
O55         O  0.41863274  0.34221789  0.21991383    -0.57410
C56         C  0.50015654  0.28196365  0.24324631     0.76350
C57         C  0.53272838  0.37498503  0.21284595     0.78740
Cd58       Cd  0.48195486  0.32608039  0.20247296     1.37460
O59         O  0.49214821  0.30062200  0.15802714    -0.56250
O60         O  0.54444826  0.34985066  0.20450802    -0.55060
C61         C  0.40108631  0.32198382  0.20671539     0.78700
O62         O  0.49737763  0.37742880  0.21623648    -0.57430
O63         O  0.48081340  0.34801732  0.15703351    -0.55880
O64         O  0.49311424  0.30874142  0.24950257    -0.55870
O65         O  0.42084666  0.30590451  0.19123282    -0.55040
O66         O  0.22399068  0.27419398  0.21624510    -0.56250
C67         C  0.13707537  0.22081064  0.24065301     0.76380
O68         O  0.22874789  0.26713087  0.29692219    -0.57410
C69         C  0.24319828  0.29576732  0.22595414     0.76350
C70         C  0.13326719  0.31319368  0.27658992     0.78740
Cd71       Cd  0.18498371  0.26896512  0.25773929     1.37460
O72         O  0.14600145  0.24157161  0.22420360    -0.56250
O73         O  0.14076064  0.30968617  0.25147953    -0.55060
C74         C  0.24722056  0.24536430  0.28721905     0.78700
O75         O  0.14900181  0.29569537  0.29343793    -0.57430
O76         O  0.14993925  0.22259170  0.26481040    -0.55880
O77         O  0.23033906  0.30818087  0.24717482    -0.55870
O78         O  0.23278049  0.23158678  0.26713850    -0.55040
O79         O  0.97471239  0.01472535  0.46951096    -0.56250
C80         C  0.98778951  0.46614416  0.39528090     0.76380
O81         O  0.05314535  0.43868425  0.46519317    -0.57410
C82         C  0.97771540  0.50875322  0.49477699     0.76350
C83         C  0.94126682  0.41694936  0.46665909     0.78740
Cd84       Cd  0.99308214  0.46406294  0.45384733     1.37470
O85         O  0.98686121  0.49011115  0.40911812    -0.56250
O86         O  0.93009975  0.44067408  0.45508252    -0.55060
C87         C  0.07382663  0.46036971  0.45775861     0.78700
O88         O  0.97611494  0.41532542  0.47225391    -0.57430
O89         O  0.98912254  0.44195724  0.40850545    -0.55880
O90         O  0.98413572  0.48188352  0.50094134    -0.55870
O91         O  0.05699885  0.48304504  0.44870359    -0.55040
O92         O  0.97569636  0.02608986  0.04112122    -0.56250
C93         C  0.99007695  0.07227683  0.11495115     0.76380
O94         O  0.05824470  0.09280884  0.03859790    -0.57410
C95         C  0.97809943  0.03212712  0.01584427     0.76350
C96         C  0.94437708  0.12580486  0.04864186     0.78740
Cd97       Cd  0.99518369  0.07664568  0.05679353     1.37460
O98         O  0.98421126  0.04928642  0.10022895    -0.56250
O99         O  0.93350228  0.10087614  0.05815495    -0.55060
C100        C  0.07647434  0.07552158  0.05427207     0.78700
O101        O  0.97910642  0.12774454  0.04260287    -0.57430
O102        O  0.99621468  0.09670945  0.10268921    -0.55880
O103        O  0.98463462  0.05903873  0.00966717    -0.55870
O104        O  0.05694472  0.06108487  0.07126388    -0.55040
O105        O  0.32732268  0.48947096  0.03580158    -0.56250
C106        C  0.23261600  0.04973210  0.03217761     0.76380
O107        O  0.32025551  0.05340056  0.46962996    -0.57410
C108        C  0.34066492  0.47198535  0.01779130     0.76350
C109        C  0.22984409  0.48528312  0.47919866     0.78740
Cd110      Cd  0.29008635  0.01910335  0.00321376     1.37470
O111        O  0.25537450  0.03287674  0.04494307    -0.56250
O112        O  0.23952066  0.48375268  0.00405676    -0.55060
C113        C  0.34097793  0.06634202  0.48737539     0.78700
O114        O  0.25110150  0.00116032  0.46395462    -0.57430
O115        O  0.24032884  0.05545459  0.00745230    -0.55880
O116        O  0.33037506  0.47669627  0.49332577    -0.55870
O117        O  0.33782256  0.05654990  0.01153542    -0.55040
O118        O  0.47373388  0.26380413  0.46789821    -0.56250
C119        C  0.49100417  0.21554828  0.39420935     0.76380
O120        O  0.55789323  0.19691989  0.46982549    -0.57410
C121        C  0.47527120  0.25781376  0.49322467     0.76350
C122        C  0.44463558  0.16445472  0.46268987     0.78740
Cd123      Cd  0.49467136  0.21359031  0.45272278     1.37460
O124        O  0.48442656  0.23879052  0.40829510    -0.56250
O125        O  0.43340867  0.18799617  0.45090693    -0.55060
C126        C  0.57544363  0.21775629  0.45757469     0.78700
O127        O  0.47908885  0.16349169  0.46968064    -0.57430
O128        O  0.49748942  0.19166705  0.40716761    -0.55880
O129        O  0.48170713  0.23099535  0.49954398    -0.55870
O130        O  0.55569090  0.23451953  0.44273262    -0.55040
O131        O  0.46989811  0.27526613  0.03944455    -0.56250
C132        C  0.48668316  0.32388722  0.11405786     0.76380
O133        O  0.55539478  0.34235904  0.04102696    -0.57410
C134        C  0.47448702  0.28119902  0.01427870     0.76350
C135        C  0.44172836  0.37388914  0.04385678     0.78740
Cd136      Cd  0.49113144  0.32523125  0.05558956     1.37470
O137        O  0.47848997  0.30076285  0.10012598    -0.56250
O138        O  0.42946131  0.34958824  0.05391219    -0.55060
C139        C  0.57156172  0.32024846  0.05216078     0.78700
O140        O  0.47691527  0.37562581  0.03932391    -0.57430
O141        O  0.49487176  0.34739087  0.10094881    -0.55880
O142        O  0.48251503  0.30793773  0.00832254    -0.55870
O143        O  0.55063897  0.30251405  0.06530637    -0.55040
O144        O  0.75357480  0.26357315  0.46701758    -0.56250
C145        C  0.84147431  0.31757659  0.49357379     0.76380
O146        O  0.74854101  0.27327845  0.04792774    -0.57410
C147        C  0.73341988  0.24291071  0.47734060     0.76350
C148        C  0.84270979  0.22403805  0.02635894     0.78740
Cd149      Cd  0.79202616  0.26951755  0.00875674     1.37460
O150        O  0.83067609  0.29831898  0.47606156    -0.56250
O151        O  0.83220472  0.22646129  0.50169467    -0.55060
C152        C  0.72970114  0.29422358  0.03710692     0.78700
O153        O  0.83019991  0.24302896  0.04333440    -0.57430
O154        O  0.82926374  0.31413220  0.01772028    -0.55880
O155        O  0.74527359  0.23125634  0.99922850    -0.55870
O156        O  0.74381327  0.30671561  0.01630724    -0.55040
C157        C  0.61262414  0.31420329  0.04964627    -0.03770
C158        C  0.63959820  0.33760956  0.04997181    -0.00890
C159        C  0.67840273  0.33112957  0.04749033     0.04100
C160        C  0.69060782  0.30121298  0.04552156    -0.03770
C161        C  0.66370179  0.27779354  0.04609243    -0.00880
C162        C  0.62498867  0.28425419  0.04735955     0.04100
C163        C  0.62762771  0.36834170  0.05307397     0.38750
C164        C  0.67542388  0.24686029  0.04360094     0.38740
C165        C  0.59791340  0.25992500  0.04430062     0.37160
C166        C  0.70586383  0.35527209  0.04703398     0.37160
N167        N  0.57643320  0.24054648  0.04164828    -0.37660
N168        N  0.72778984  0.37452953  0.04663986    -0.37660
N169        N  0.68431416  0.22210454  0.04175322    -0.37100
N170        N  0.61808221  0.39287465  0.05555959    -0.37110
C171        C  0.61672550  0.22343436  0.46067140    -0.03770
C172        C  0.63057333  0.25323559  0.46002507    -0.00940
C173        C  0.66942815  0.25917874  0.46268219     0.04100
C174        C  0.69500381  0.23557663  0.46711318    -0.03770
C175        C  0.68138525  0.20582257  0.46751063    -0.00880
C176        C  0.64247980  0.19973472  0.46413654     0.04100
C177        C  0.60474812  0.27828720  0.45867896     0.38750
C178        C  0.70747895  0.18138529  0.47142140     0.38740
C179        C  0.62916258  0.16903190  0.46424416     0.37160
C180        C  0.68246660  0.29003635  0.46289392     0.37160
N181        N  0.61856472  0.14451844  0.46440003    -0.37660
N182        N  0.69260839  0.31467049  0.46303174    -0.37660
N183        N  0.72824535  0.16183998  0.47449086    -0.37100
N184        N  0.58427609  0.29829528  0.45776652    -0.37110
C185        C  0.41837520  0.13946098  0.46868373    -0.03770
C186        C  0.41044534  0.13198601  0.49602809    -0.00890
C187        C  0.38490551  0.10865591  0.00213006     0.04100
C188        C  0.36753730  0.09172072  0.48070762    -0.03770
C189        C  0.37595505  0.09946966  0.45311999    -0.00880
C190        C  0.40080210  0.12346408  0.44726841     0.04100
C191        C  0.42776341  0.14912300  0.01806582     0.38750
C192        C  0.35986360  0.08272970  0.43042788     0.38740
C193        C  0.40903246  0.13134260  0.41906675     0.37160
C194        C  0.37632920  0.10301795  0.03073363     0.37160
N195        N  0.41559618  0.13767413  0.39660282    -0.37660
N196        N  0.36966465  0.09874660  0.05359202    -0.37660
N197        N  0.34723361  0.06949104  0.41217414    -0.37100
N198        N  0.44149834  0.16280095  0.03561311    -0.37110
C199        C  0.41605695  0.39905130  0.03742104    -0.03770
C200        C  0.38910202  0.40867388  0.05673716    -0.00890
C201        C  0.36454769  0.43243466  0.05045030     0.04100
C202        C  0.36695445  0.44712384  0.02479581    -0.03770
C203        C  0.39429168  0.43747325  0.00557233    -0.00880
C204        C  0.41835678  0.41344090  0.01178588     0.04100
C205        C  0.38715153  0.39460995  0.08346528     0.38750
C206        C  0.39855673  0.45250972  0.47943295     0.38740
C207        C  0.44462153  0.40278720  0.49123814     0.37160
C208        C  0.33615165  0.44100096  0.07029222     0.37160
N209        N  0.46541357  0.39420668  0.47481391    -0.37660
N210        N  0.31354395  0.44776149  0.08616255    -0.37660
N211        N  0.40207477  0.46437892  0.45855075    -0.37100
N212        N  0.38559237  0.38347803  0.10480591    -0.37110
C213        C  0.86797229  0.19955061  0.03467637    -0.03770
C214        C  0.85401627  0.17005788  0.03545542    -0.00890
C215        C  0.87864475  0.14600927  0.04030162     0.04100
C216        C  0.91776090  0.15133533  0.04468399    -0.03770
C217        C  0.93119103  0.18133112  0.04508656    -0.00880
C218        C  0.90638063  0.20522934  0.03991199     0.04100
C219        C  0.81399699  0.16453570  0.03135671     0.38750
C220        C  0.97038200  0.18799205  0.05127891     0.38740
C221        C  0.92055497  0.23571350  0.03923762     0.37160
C222        C  0.86337339  0.11585255  0.03982217     0.37160
N223        N  0.93186693  0.26001761  0.03863360    -0.37660
N224        N  0.85085961  0.09190304  0.03944135    -0.37660
N225        N  0.00161332  0.19340431  0.05622332    -0.37100
N226        N  0.78205947  0.16027339  0.02825961    -0.37110
C227        C  0.11818576  0.07103637  0.05245071    -0.03770
C228        C  0.13416588  0.04342889  0.06078037    -0.00890
C229        C  0.17290216  0.03797140  0.05707730     0.04100
C230        C  0.19601668  0.05935911  0.04393393    -0.03770
C231        C  0.18081591  0.08749999  0.03712895    -0.00880
C232        C  0.14222107  0.09345481  0.04160500     0.04100
C233        C  0.11066143  0.01933440  0.07130052     0.38750
C234        C  0.20494406  0.11033955  0.02526731     0.38740
C235        C  0.12746833  0.12267825  0.03483982     0.37160
C236        C  0.18813593  0.00918865  0.06501545     0.37160
N237        N  0.11576663  0.14601776  0.02943282    -0.37660
N238        N  0.20014124  0.48627186  0.07147236    -0.37660
N239        N  0.22420216  0.12855218  0.01581142    -0.37100
N240        N  0.09211993  0.49997171  0.07954136    -0.37110
C241        C  0.91499802  0.39212208  0.47353103    -0.03770
C242        C  0.91611286  0.37915728  0.49983139    -0.00890
C243        C  0.89265999  0.35459747  0.00619094     0.04100
C244        C  0.86707215  0.34302101  0.48642779    -0.03770
C245        C  0.86563713  0.35639648  0.46015237    -0.00880
C246        C  0.88958608  0.38073831  0.45374598     0.04100
C247        C  0.94065340  0.39171075  0.02079345     0.38750
C248        C  0.83897886  0.34573983  0.43972030     0.38740
C249        C  0.88876996  0.39349220  0.42644580     0.37160
C250        C  0.89592193  0.34090489  0.03301345     0.37160
N251        N  0.88812101  0.40359549  0.40465630    -0.37660
N252        N  0.89863853  0.33010565  0.05443210    -0.37660
N253        N  0.81777796  0.33729885  0.42336370    -0.37100
N254        N  0.96007199  0.40180418  0.03752930    -0.37110
C255        C  0.11559380  0.46017847  0.46016802    -0.03770
C256        C  0.13802222  0.47385398  0.43975850    -0.00890
C257        C  0.17667232  0.47961744  0.44455262     0.04100
C258        C  0.19339167  0.47136829  0.46979559    -0.03770
C259        C  0.17200507  0.45332849  0.48814786    -0.00880
C260        C  0.13309312  0.44869851  0.48381194     0.04100
C261        C  0.12117823  0.48235893  0.41381580     0.38750
C262        C  0.18948538  0.43964960  0.01188374     0.38740
C263        C  0.11070833  0.43415265  0.00486827     0.37160
C264        C  0.19852180  0.49469931  0.42358252     0.37160
N265        N  0.09287674  0.42276888  0.02176487    -0.37660
N266        N  0.21573901  0.50665870  0.40668406    -0.37660
N267        N  0.20321358  0.42857132  0.03079374    -0.37100
N268        N  0.10770054  0.48905461  0.39314174    -0.37110
C269        C  0.28162375  0.30342733  0.21586876    -0.03770
C270        C  0.30742959  0.28003151  0.21104346    -0.00890
C271        C  0.34620753  0.28624826  0.20832734     0.04100
C272        C  0.35981986  0.31608962  0.20953193    -0.03770
C273        C  0.33389496  0.33959029  0.21337675    -0.00880
C274        C  0.29503164  0.33326525  0.21664862     0.04100
C275        C  0.29480287  0.24906653  0.21100944     0.38750
C276        C  0.34702582  0.37033560  0.21395906     0.38740
C277        C  0.26882411  0.35753540  0.22107662     0.37160
C278        C  0.37225755  0.26139248  0.20631379     0.37160
N279        N  0.24792045  0.37689062  0.22466898    -0.37660
N280        N  0.39291907  0.24154585  0.20484294    -0.37660
N281        N  0.35748983  0.39487995  0.21447776    -0.37100
N282        N  0.28496889  0.22435451  0.21100145    -0.37110
C283        C  0.36417350  0.22550816  0.29988921    -0.03770
C284        C  0.35228111  0.25507207  0.29457575    -0.00890
C285        C  0.31368083  0.26189528  0.29365164     0.04100
C286        C  0.28637051  0.23889629  0.29583664    -0.03770
C287        C  0.29807513  0.20930623  0.30087051    -0.00880
C288        C  0.33685789  0.20271263  0.30348167     0.04100
C289        C  0.37966265  0.27834559  0.28813616     0.38750
C290        C  0.27011220  0.18576175  0.30378248     0.38740
C291        C  0.34849973  0.17264239  0.31030487     0.37160
C292        C  0.30242082  0.29264416  0.28916060     0.37160
N293        N  0.35781371  0.14867057  0.31586505    -0.37660
N294        N  0.29405459  0.31733557  0.28591778    -0.37660
N295        N  0.24776413  0.16699714  0.30618024    -0.37100
N296        N  0.40138599  0.29682233  0.28274338    -0.37110
C297        C  0.61056500  0.09322722  0.27466052    -0.03770
C298        C  0.57474975  0.08766077  0.28612576    -0.00890
C299        C  0.55041024  0.11155999  0.29228994     0.04100
C300        C  0.56169514  0.14141974  0.28704588    -0.03770
C301        C  0.59781852  0.14694617  0.27570040    -0.00880
C302        C  0.62189045  0.12293482  0.26928845     0.04100
C303        C  0.56205112  0.05722976  0.29051525     0.38750
C304        C  0.61012876  0.17725079  0.26984725     0.38740
C305        C  0.65851417  0.12887329  0.25718504     0.37160
C306        C  0.51404887  0.10522827  0.30467679     0.37160
N307        N  0.68757241  0.13366982  0.24734664    -0.37660
N308        N  0.48506070  0.10013443  0.31452590    -0.37660
N309        N  0.62018514  0.20136991  0.26521685    -0.37100
N310        N  0.55120758  0.03311702  0.29397716    -0.37110
C311        C  0.61022389  0.44775946  0.23122765    -0.03770
C312        C  0.61514433  0.43023945  0.20733694    -0.00890
C313        C  0.58991408  0.40651451  0.20127808     0.04100
C314        C  0.55919883  0.40017915  0.21885927    -0.03770
C315        C  0.55434467  0.41756504  0.24274102    -0.00880
C316        C  0.57988865  0.44086568  0.24908440     0.04100
C317        C  0.64717157  0.43558816  0.18950327     0.38750
C318        C  0.52374753  0.41085135  0.26154118     0.38740
C319        C  0.57475655  0.45734844  0.27439017     0.37160
C320        C  0.59535775  0.38898210  0.17658451     0.37160
N321        N  0.57065652  0.46981536  0.29492655    -0.37660
N322        N  0.59984208  0.37500625  0.15690860    -0.37660
N323        N  0.49937142  0.40558969  0.27653721    -0.37100
N324        N  0.67276711  0.43973431  0.17530785    -0.37110
C325        C  0.05940943  0.38648168  0.29552047    -0.03770
C326        C  0.04454069  0.35720534  0.29132020    -0.00890
C327        C  0.06886963  0.33296080  0.28630765     0.04100
C328        C  0.10810922  0.33747956  0.28552362    -0.03770
C329        C  0.12332552  0.36595458  0.29105434    -0.00880
C330        C  0.09930039  0.39038573  0.29604169     0.04100
C331        C  0.00425007  0.35148728  0.29245443     0.38750
C332        C  0.16399383  0.37011595  0.29118687     0.38740
C333        C  0.11629136  0.41949458  0.30093834     0.37160
C334        C  0.05351896  0.30318080  0.28202734     0.37160
N335        N  0.13022490  0.44256414  0.30490466    -0.37660
N336        N  0.04116775  0.27942692  0.27887037    -0.37660
N337        N  0.19640666  0.37326205  0.29133581    -0.37100
N338        N  0.97214737  0.34678131  0.29330336    -0.37110
C339        C  0.86202620  0.47310291  0.29994437    -0.03770
C340        C  0.84877454  0.50292086  0.30139207    -0.00890
C341        C  0.80999486  0.00895031  0.29927693     0.04100
C342        C  0.78414969  0.48569626  0.29335124    -0.03770
C343        C  0.79705688  0.45593613  0.29214483    -0.00880
C344        C  0.83570744  0.44956266  0.29599843     0.04100
C345        C  0.87504378  0.02796092  0.30282073     0.38750
C346        C  0.77040779  0.43183568  0.28707882     0.38740
C347        C  0.84814848  0.41876894  0.29596520     0.37160
C348        C  0.79716160  0.03958222  0.30172038     0.37160
N349        N  0.85804610  0.39417902  0.29599190    -0.37660
N350        N  0.78715180  0.06400343  0.30406644    -0.37660
N351        N  0.74910254  0.41262018  0.28307114    -0.37100
N352        N  0.89585303  0.04797896  0.30364708    -0.37110
C353        C  0.06419928  0.14645109  0.22041956    -0.03770
C354        C  0.10247759  0.14157953  0.22742848    -0.00890
C355        C  0.12644769  0.16601514  0.23353194     0.04100
C356        C  0.11266738  0.19546478  0.23225819    -0.03770
C357        C  0.07520520  0.20053026  0.22395744    -0.00880
C358        C  0.05093462  0.17619023  0.21831555     0.04100
C359        C  0.11728610  0.11150137  0.22911254     0.38750
C360        C  0.06136579  0.23085783  0.22163717     0.38740
C361        C  0.01248089  0.18202245  0.20974138     0.37160
C362        C  0.16569369  0.16094817  0.24053945     0.37160
N363        N  0.98180461  0.18670387  0.20297138    -0.37660
N364        N  0.19703776  0.15704387  0.24599521    -0.37660
N365        N  0.05029311  0.25501106  0.21955925    -0.37100
N366        N  0.12938943  0.08758977  0.23037908    -0.37110
C367        C  0.86300978  0.07333340  0.20771687    -0.03770
C368        C  0.84262963  0.05405348  0.18994745    -0.00890
C369        C  0.80371618  0.04883287  0.19402018     0.04100
C370        C  0.78445179  0.06342113  0.21559135    -0.03770
C371        C  0.80386097  0.08614686  0.23045723    -0.00880
C372        C  0.84305666  0.09037522  0.22716674     0.04100
C373        C  0.86171274  0.03927956  0.16742652     0.38750
C374        C  0.78395729  0.10517560  0.24961025     0.38740
C375        C  0.86299924  0.11091372  0.24521323     0.37160
C376        C  0.78432609  0.02749496  0.17648526     0.37160
N377        N  0.87883863  0.12718671  0.25972260    -0.37660
N378        N  0.76911944  0.01045282  0.16236470    -0.37660
N379        N  0.76862891  0.12053727  0.26501944    -0.37100
N380        N  0.87692948  0.02754849  0.14946962    -0.37110
O381        O  0.99510169  0.04767588  0.65845320    -0.56250
C382        C  0.00273148  0.02926696  0.74462976     0.76380
O383        O  0.00360612  0.12176614  0.72221630    -0.57410
C384        C  0.98974644  0.07141368  0.64487397     0.76350
C385        C  0.90504164  0.07412819  0.70679748     0.78740
Cd386      Cd  0.98609390  0.07303398  0.70345767     1.37470
O387        O  0.00563608  0.02293342  0.71939554    -0.56250
O388        O  0.92348800  0.05092771  0.70110528    -0.55060
C389        C  0.03801648  0.12080267  0.71522315     0.78700
O390        O  0.92436567  0.09742126  0.71189897    -0.57430
O391        O  0.99594498  0.05617772  0.75062000    -0.55880
O392        O  0.98450008  0.09511247  0.65835119    -0.55870
O393        O  0.04870578  0.09707560  0.70336779    -0.55040
O394        O  0.00507900  0.51254566  0.79109469    -0.56250
C395        C  0.98733116  0.46576250  0.86534832     0.76380
O396        O  0.92007121  0.44617420  0.79043386    -0.57410
C397        C  0.00251981  0.50616347  0.76586047     0.76350
C398        C  0.03352326  0.41265894  0.79918670     0.78740
Cd399      Cd  0.98388729  0.46266698  0.80703110     1.37470
O400        O  0.99760617  0.48806137  0.85107549    -0.56250
O401        O  0.04459298  0.43705629  0.80979438    -0.55060
C402        C  0.90323276  0.46724259  0.80272235     0.78700
O403        O  0.99920257  0.41184637  0.79178685    -0.57430
O404        O  0.97700241  0.44244824  0.85262053    -0.55880
O405        O  0.99565566  0.47920780  0.75987360    -0.55870
O406        O  0.92364790  0.48407067  0.81730458    -0.55040
O407        O  0.72517587  0.01249467  0.79439781    -0.56250
C408        C  0.63591583  0.06811442  0.76761709     0.76380
O409        O  0.72608839  0.03396585  0.71238964    -0.57410
C410        C  0.74639339  0.49365219  0.78259869     0.76350
C411        C  0.63693887  0.47273328  0.73796550     0.78740
Cd412      Cd  0.68681977  0.02100797  0.75304139     1.37460
O413        O  0.64743950  0.04971474  0.78546909    -0.56250
O414        O  0.64575714  0.47866194  0.76251279    -0.55060
C415        C  0.74741172  0.05160956  0.72594211     0.78700
O416        O  0.65183833  0.48925439  0.71974205    -0.57430
O417        O  0.64742241  0.06435990  0.74333832    -0.55880
O418        O  0.73614529  0.48443626  0.75922918    -0.55870
O419        O  0.73730685  0.05684762  0.75025947    -0.55040
O420        O  0.50600631  0.26470629  0.78946312    -0.56250
C421        C  0.49072918  0.21574716  0.86424896     0.76380
O422        O  0.42100617  0.19651588  0.79257689    -0.57410
C423        C  0.50106447  0.25866668  0.76431528     0.76350
C424        C  0.53570459  0.16662604  0.79323315     0.78740
Cd425      Cd  0.48554610  0.21469054  0.80572039     1.37460
O426        O  0.49844293  0.23899229  0.85045094    -0.56250
O427        O  0.54771892  0.19135260  0.80268475    -0.55060
C428        C  0.40515965  0.21946502  0.80251544     0.78700
O429        O  0.50036849  0.16440854  0.78940212    -0.57430
O430        O  0.48275943  0.19224122  0.85098957    -0.55880
O431        O  0.49304219  0.23187925  0.75838488    -0.55870
O432        O  0.42633591  0.23814139  0.81441512    -0.55040
O433        O  0.50247087  0.27591863  0.71793365    -0.56250
C434        C  0.48649009  0.32401982  0.64400898     0.76380
O435        O  0.41863276  0.34221789  0.71991383    -0.57410
C436        C  0.50015656  0.28196365  0.74324630     0.76350
C437        C  0.53272840  0.37498503  0.71284594     0.78740
Cd438      Cd  0.48195487  0.32608038  0.70247295     1.37460
O439        O  0.49214822  0.30062200  0.65802714    -0.56250
O440        O  0.54444827  0.34985066  0.70450801    -0.55060
C441        C  0.40108632  0.32198382  0.70671538     0.78700
O442        O  0.49737764  0.37742880  0.71623647    -0.57430
O443        O  0.48081341  0.34801732  0.65703351    -0.55880
O444        O  0.49311426  0.30874142  0.74950257    -0.55870
O445        O  0.42084667  0.30590452  0.69123281    -0.55040
O446        O  0.22399069  0.27419400  0.71624509    -0.56250
C447        C  0.13707540  0.22081066  0.74065301     0.76380
O448        O  0.22874792  0.26713088  0.79692219    -0.57410
C449        C  0.24319829  0.29576734  0.72595413     0.76350
C450        C  0.13326721  0.31319368  0.77658993     0.78740
Cd451      Cd  0.18498373  0.26896513  0.75773929     1.37460
O452        O  0.14600147  0.24157163  0.72420361    -0.56250
O453        O  0.14076063  0.30968616  0.75147953    -0.55060
C454        C  0.24722058  0.24536431  0.78721905     0.78700
O455        O  0.14900186  0.29569539  0.79343794    -0.57430
O456        O  0.14993927  0.22259171  0.76481041    -0.55880
O457        O  0.23033908  0.30818088  0.74717482    -0.55870
O458        O  0.23278051  0.23158679  0.76713849    -0.55040
O459        O  0.97471235  0.01472534  0.96951097    -0.56250
C460        C  0.98778952  0.46614417  0.89528089     0.76380
O461        O  0.05314535  0.43868424  0.96519316    -0.57410
C462        C  0.97771541  0.50875322  0.99477699     0.76350
C463        C  0.94126682  0.41694937  0.96665909     0.78740
Cd464      Cd  0.99308215  0.46406294  0.95384733     1.37470
O465        O  0.98686122  0.49011116  0.90911812    -0.56250
O466        O  0.93009975  0.44067410  0.95508253    -0.55060
C467        C  0.07382663  0.46036970  0.95775860     0.78700
O468        O  0.97611494  0.41532542  0.97225389    -0.57430
O469        O  0.98912253  0.44195725  0.90850544    -0.55880
O470        O  0.98413574  0.48188352  0.00094133    -0.55870
O471        O  0.05699886  0.48304504  0.94870358    -0.55040
O472        O  0.97569635  0.02608986  0.54112122    -0.56250
C473        C  0.99007697  0.07227683  0.61495116     0.76380
O474        O  0.05824472  0.09280885  0.53859794    -0.57410
C475        C  0.97809945  0.03212713  0.51584427     0.76350
C476        C  0.94437709  0.12580486  0.54864187     0.78740
Cd477      Cd  0.99518370  0.07664568  0.55679354     1.37460
O478        O  0.98421125  0.04928642  0.60022896    -0.56250
O479        O  0.93350229  0.10087614  0.55815496    -0.55060
C480        C  0.07647435  0.07552156  0.55427208     0.78700
O481        O  0.97910642  0.12774453  0.54260287    -0.57430
O482        O  0.99621472  0.09670946  0.60268922    -0.55880
O483        O  0.98463466  0.05903873  0.50966717    -0.55870
O484        O  0.05694471  0.06108482  0.57126387    -0.55040
O485        O  0.32732268  0.48947097  0.53580160    -0.56250
C486        C  0.23261602  0.04973209  0.53217764     0.76380
O487        O  0.32025552  0.05340055  0.96962994    -0.57410
C488        C  0.34066492  0.47198537  0.51779131     0.76350
C489        C  0.22984409  0.48528311  0.97919864     0.78740
Cd490      Cd  0.29008636  0.01910334  0.50321378     1.37470
O491        O  0.25537452  0.03287672  0.54494310    -0.56250
O492        O  0.23952066  0.48375269  0.50405678    -0.55060
C493        C  0.34097793  0.06634202  0.98737538     0.78700
O494        O  0.25110149  0.00116031  0.96395461    -0.57430
O495        O  0.24032886  0.05545458  0.50745233    -0.55880
O496        O  0.33037507  0.47669625  0.99332575    -0.55870
O497        O  0.33782258  0.05654989  0.51153543    -0.55040
O498        O  0.47373388  0.26380412  0.96789821    -0.56250
C499        C  0.49100418  0.21554827  0.89420934     0.76380
O500        O  0.55789324  0.19691988  0.96982548    -0.57410
C501        C  0.47527121  0.25781374  0.99322467     0.76350
C502        C  0.44463560  0.16445471  0.96268986     0.78740
Cd503      Cd  0.49467137  0.21359030  0.95272277     1.37460
O504        O  0.48442657  0.23879051  0.90829509    -0.56250
O505        O  0.43340868  0.18799616  0.95090692    -0.55060
C506        C  0.57544365  0.21775629  0.95757469     0.78700
O507        O  0.47908887  0.16349168  0.96968064    -0.57430
O508        O  0.49748944  0.19166704  0.90716761    -0.55880
O509        O  0.48170715  0.23099534  0.99954398    -0.55870
O510        O  0.55569091  0.23451953  0.94273262    -0.55040
O511        O  0.46989810  0.27526615  0.53944455    -0.56250
C512        C  0.48668317  0.32388723  0.61405786     0.76380
O513        O  0.55539479  0.34235904  0.54102695    -0.57410
C514        C  0.47448701  0.28119903  0.51427870     0.76350
C515        C  0.44172837  0.37388915  0.54385678     0.78740
Cd516      Cd  0.49113145  0.32523127  0.55558955     1.37470
O517        O  0.47848998  0.30076286  0.60012597    -0.56250
O518        O  0.42946131  0.34958825  0.55391219    -0.55060
C519        C  0.57156172  0.32024847  0.55216077     0.78700
O520        O  0.47691528  0.37562582  0.53932391    -0.57430
O521        O  0.49487177  0.34739088  0.60094881    -0.55880
O522        O  0.48251503  0.30793775  0.50832254    -0.55870
O523        O  0.55063898  0.30251407  0.56530637    -0.55040
O524        O  0.75357480  0.26357317  0.96701757    -0.56250
C525        C  0.84147431  0.31757661  0.99357379     0.76380
O526        O  0.74854101  0.27327845  0.54792775    -0.57410
C527        C  0.73341989  0.24291072  0.97734059     0.76350
C528        C  0.84270979  0.22403804  0.52635895     0.78740
Cd529      Cd  0.79202616  0.26951754  0.50875674     1.37460
O530        O  0.83067608  0.29831900  0.97606156    -0.56250
O531        O  0.83220470  0.22646130  0.00169467    -0.55060
C532        C  0.72970114  0.29422358  0.53710692     0.78700
O533        O  0.83019990  0.24302894  0.54333441    -0.57430
O534        O  0.82926374  0.31413219  0.51772028    -0.55880
O535        O  0.74527358  0.23125633  0.49922851    -0.55870
O536        O  0.74381327  0.30671559  0.51630723    -0.55040
C537        C  0.61262414  0.31420329  0.54964626    -0.03770
C538        C  0.63959820  0.33760957  0.54997180    -0.00890
C539        C  0.67840274  0.33112958  0.54749032     0.04100
C540        C  0.69060782  0.30121299  0.54552156    -0.03770
C541        C  0.66370179  0.27779354  0.54609243    -0.00880
C542        C  0.62498868  0.28425419  0.54735956     0.04100
C543        C  0.62762771  0.36834170  0.55307394     0.38750
C544        C  0.67542388  0.24686030  0.54360095     0.38740
C545        C  0.59791340  0.25992500  0.54430064     0.37160
C546        C  0.70586383  0.35527210  0.54703395     0.37160
N547        N  0.57643321  0.24054648  0.54164831    -0.37660
N548        N  0.72778984  0.37452954  0.54663983    -0.37660
N549        N  0.68431416  0.22210454  0.54175325    -0.37100
N550        N  0.61808222  0.39287466  0.55555955    -0.37110
C551        C  0.61672551  0.22343436  0.96067139    -0.03770
C552        C  0.63057333  0.25323559  0.96002507    -0.00940
C553        C  0.66942815  0.25917876  0.96268219     0.04100
C554        C  0.69500382  0.23557665  0.96711317    -0.03770
C555        C  0.68138527  0.20582258  0.96751061    -0.00880
C556        C  0.64247982  0.19973472  0.96413652     0.04100
C557        C  0.60474812  0.27828721  0.95867897     0.38750
C558        C  0.70747897  0.18138530  0.97142136     0.38740
C559        C  0.62916260  0.16903191  0.96424412     0.37160
C560        C  0.68246660  0.29003636  0.96289393     0.37160
N561        N  0.61856475  0.14451845  0.96439999    -0.37660
N562        N  0.69260838  0.31467050  0.96303176    -0.37660
N563        N  0.72824538  0.16184000  0.97449081    -0.37100
N564        N  0.58427608  0.29829528  0.95776654    -0.37110
C565        C  0.41837522  0.13946097  0.96868372    -0.03770
C566        C  0.41044537  0.13198599  0.99602808    -0.00890
C567        C  0.38490548  0.10865593  0.50213007     0.04100
C568        C  0.36753731  0.09172071  0.98070760    -0.03770
C569        C  0.37595505  0.09946966  0.95311998    -0.00880
C570        C  0.40080211  0.12346408  0.94726840     0.04100
C571        C  0.42776337  0.14912303  0.51806583     0.38750
C572        C  0.35986359  0.08272971  0.93042787     0.38740
C573        C  0.40903246  0.13134261  0.91906674     0.37160
C574        C  0.37632916  0.10301798  0.53073364     0.37160
N575        N  0.41559618  0.13767414  0.89660281    -0.37660
N576        N  0.36966459  0.09874664  0.55359203    -0.37660
N577        N  0.34723359  0.06949106  0.91217412    -0.37100
N578        N  0.44149829  0.16280098  0.53561312    -0.37110
C579        C  0.41605696  0.39905132  0.53742105    -0.03770
C580        C  0.38910203  0.40867389  0.55673717    -0.00890
C581        C  0.36454769  0.43243467  0.55045031     0.04100
C582        C  0.36695445  0.44712385  0.52479582    -0.03770
C583        C  0.39429168  0.43747327  0.50557234    -0.00880
C584        C  0.41835678  0.41344091  0.51178588     0.04100
C585        C  0.38715154  0.39460996  0.58346528     0.38750
C586        C  0.39855673  0.45250970  0.97943293     0.38740
C587        C  0.44462153  0.40278717  0.99123813     0.37160
C588        C  0.33615165  0.44100097  0.57029223     0.37160
N589        N  0.46541357  0.39420666  0.97481390    -0.37660
N590        N  0.31354395  0.44776149  0.58616256    -0.37660
N591        N  0.40207477  0.46437890  0.95855074    -0.37100
N592        N  0.38559238  0.38347804  0.60480591    -0.37110
C593        C  0.86797229  0.19955060  0.53467637    -0.03770
C594        C  0.85401627  0.17005787  0.53545545    -0.00890
C595        C  0.87864475  0.14600927  0.54030165     0.04100
C596        C  0.91776090  0.15133532  0.54468399    -0.03770
C597        C  0.93119104  0.18133111  0.54508654    -0.00880
C598        C  0.90638063  0.20522933  0.53991197     0.04100
C599        C  0.81399698  0.16453570  0.53135676     0.38750
C600        C  0.97038202  0.18799205  0.55127887     0.38740
C601        C  0.92055498  0.23571349  0.53923757     0.37160
C602        C  0.86337339  0.11585254  0.53982223     0.37160
N603        N  0.93186694  0.26001760  0.53863354    -0.37660
N604        N  0.85085960  0.09190304  0.53944143    -0.37660
N605        N  0.00161334  0.19340431  0.55622325    -0.37100
N606        N  0.78205946  0.16027338  0.52825968    -0.37110
C607        C  0.11818577  0.07103635  0.55245073    -0.03770
C608        C  0.13416589  0.04342886  0.56078039    -0.00890
C609        C  0.17290217  0.03797138  0.55707732     0.04100
C610        C  0.19601669  0.05935909  0.54393396    -0.03770
C611        C  0.18081592  0.08749998  0.53712899    -0.00880
C612        C  0.14222109  0.09345479  0.54160504     0.04100
C613        C  0.11066144  0.01933437  0.57130053     0.38750
C614        C  0.20494408  0.11033955  0.52526737     0.38740
C615        C  0.12746835  0.12267825  0.53483987     0.37160
C616        C  0.18813594  0.00918862  0.56501546     0.37160
N617        N  0.11576666  0.14601776  0.52943289    -0.37660
N618        N  0.20014125  0.48627187  0.57147240    -0.37660
N619        N  0.22420218  0.12855218  0.51581149    -0.37100
N620        N  0.09211995  0.49997170  0.57954139    -0.37110
C621        C  0.91499802  0.39212209  0.97353102    -0.03770
C622        C  0.91611288  0.37915728  0.99983138    -0.00890
C623        C  0.89265997  0.35459747  0.50619095     0.04100
C624        C  0.86707215  0.34302103  0.98642779    -0.03770
C625        C  0.86563710  0.35639651  0.96015238    -0.00880
C626        C  0.88958605  0.38073834  0.95374599     0.04100
C627        C  0.94065336  0.39171077  0.52079346     0.38750
C628        C  0.83897881  0.34573988  0.93972031     0.38740
C629        C  0.88876990  0.39349225  0.92644581     0.37160
C630        C  0.89592189  0.34090490  0.53301346     0.37160
N631        N  0.88812094  0.40359555  0.90465632    -0.37660
N632        N  0.89863848  0.33010567  0.55443213    -0.37660
N633        N  0.81777788  0.33729892  0.92336372    -0.37100
N634        N  0.96007193  0.40180422  0.53752932    -0.37110
C635        C  0.11559381  0.46017846  0.96016800    -0.03770
C636        C  0.13802222  0.47385397  0.93975848    -0.00890
C637        C  0.17667232  0.47961743  0.94455260     0.04100
C638        C  0.19339167  0.47136828  0.96979557    -0.03770
C639        C  0.17200508  0.45332847  0.98814784    -0.00880
C640        C  0.13309313  0.44869850  0.98381192     0.04100
C641        C  0.12117824  0.48235892  0.91381578     0.38750
C642        C  0.18948536  0.43964962  0.51188376     0.38740
C643        C  0.11070832  0.43415267  0.50486829     0.37160
C644        C  0.19852180  0.49469930  0.92358250     0.37160
N645        N  0.09287673  0.42276889  0.52176489    -0.37660
N646        N  0.21573901  0.50665869  0.90668404    -0.37660
N647        N  0.20321357  0.42857134  0.53079376    -0.37100
N648        N  0.10770054  0.48905460  0.89314173    -0.37110
C649        C  0.28162376  0.30342735  0.71586876    -0.03770
C650        C  0.30742960  0.28003153  0.71104345    -0.00890
C651        C  0.34620754  0.28624827  0.70832733     0.04100
C652        C  0.35981988  0.31608963  0.70953193    -0.03770
C653        C  0.33389498  0.33959030  0.71337675    -0.00880
C654        C  0.29503166  0.33326527  0.71664862     0.04100
C655        C  0.29480287  0.24906655  0.71100943     0.38750
C656        C  0.34702585  0.37033561  0.71395907     0.38740
C657        C  0.26882413  0.35753542  0.72107662     0.37160
C658        C  0.37225756  0.26139248  0.70631377     0.37160
N659        N  0.24792048  0.37689064  0.72466899    -0.37660
N660        N  0.39291907  0.24154585  0.70484292    -0.37660
N661        N  0.35748986  0.39487996  0.71447777    -0.37100
N662        N  0.28496889  0.22435452  0.71100142    -0.37110
C663        C  0.36417352  0.22550815  0.79988920    -0.03770
C664        C  0.35228114  0.25507206  0.79457574    -0.00890
C665        C  0.31368086  0.26189528  0.79365163     0.04100
C666        C  0.28637054  0.23889630  0.79583662    -0.03770
C667        C  0.29807515  0.20930623  0.80087050    -0.00880
C668        C  0.33685791  0.20271263  0.80348166     0.04100
C669        C  0.37966267  0.27834558  0.78813615     0.38750
C670        C  0.27011222  0.18576175  0.80378247     0.38740
C671        C  0.34849975  0.17264239  0.81030485     0.37160
C672        C  0.30242085  0.29264416  0.78916059     0.37160
N673        N  0.35781372  0.14867056  0.81586503    -0.37660
N674        N  0.29405462  0.31733557  0.78591777    -0.37660
N675        N  0.24776415  0.16699714  0.80618023    -0.37100
N676        N  0.40138602  0.29682233  0.78274337    -0.37110
C677        C  0.61056501  0.09322722  0.77466050    -0.03770
C678        C  0.57474976  0.08766077  0.78612573    -0.00890
C679        C  0.55041025  0.11155998  0.79228991     0.04100
C680        C  0.56169516  0.14141973  0.78704586    -0.03770
C681        C  0.59781854  0.14694616  0.77570039    -0.00880
C682        C  0.62189048  0.12293482  0.76928845     0.04100
C683        C  0.56205112  0.05722975  0.79051520     0.38750
C684        C  0.61012879  0.17725079  0.76984725     0.38740
C685        C  0.65851419  0.12887329  0.75718504     0.37160
C686        C  0.51404888  0.10522827  0.80467676     0.37160
N687        N  0.68757244  0.13366982  0.74734664    -0.37660
N688        N  0.48506071  0.10013442  0.81452586    -0.37660
N689        N  0.62018517  0.20136991  0.76521686    -0.37100
N690        N  0.55120757  0.03311701  0.79397710    -0.37110
C691        C  0.61022391  0.44775946  0.73122763    -0.03770
C692        C  0.61514434  0.43023945  0.70733692    -0.00890
C693        C  0.58991409  0.40651451  0.70127806     0.04100
C694        C  0.55919884  0.40017915  0.71885926    -0.03770
C695        C  0.55434469  0.41756504  0.74274101    -0.00880
C696        C  0.57988867  0.44086568  0.74908439     0.04100
C697        C  0.64717158  0.43558816  0.68950325     0.38750
C698        C  0.52374755  0.41085135  0.76154117     0.38740
C699        C  0.57475657  0.45734844  0.77439016     0.37160
C700        C  0.59535776  0.38898210  0.67658449     0.37160
N701        N  0.57065655  0.46981536  0.79492653    -0.37660
N702        N  0.59984208  0.37500625  0.65690858    -0.37660
N703        N  0.49937145  0.40558969  0.77653720    -0.37100
N704        N  0.67276711  0.43973431  0.67530782    -0.37110
C705        C  0.05940944  0.38648168  0.79552048    -0.03770
C706        C  0.04454070  0.35720534  0.79132019    -0.00890
C707        C  0.06886965  0.33296081  0.78630765     0.04100
C708        C  0.10810924  0.33747956  0.78552363    -0.03770
C709        C  0.12332553  0.36595458  0.79105437    -0.00880
C710        C  0.09930040  0.39038572  0.79604173     0.04100
C711        C  0.00425008  0.35148728  0.79245441     0.38750
C712        C  0.16399385  0.37011594  0.79118692     0.38740
C713        C  0.11629137  0.41949458  0.80093839     0.37160
C714        C  0.05351898  0.30318081  0.78202732     0.37160
N715        N  0.13022491  0.44256413  0.80490473    -0.37660
N716        N  0.04116777  0.27942693  0.77887034    -0.37660
N717        N  0.19640667  0.37326205  0.79133588    -0.37100
N718        N  0.97214738  0.34678131  0.79330333    -0.37110
C719        C  0.86202620  0.47310290  0.79994435    -0.03770
C720        C  0.84877454  0.50292084  0.80139208    -0.00890
C721        C  0.80999486  0.00895030  0.79927692     0.04100
C722        C  0.78414970  0.48569624  0.79335122    -0.03770
C723        C  0.79705689  0.45593611  0.79214478    -0.00880
C724        C  0.83570745  0.44956265  0.79599838     0.04100
C725        C  0.87504378  0.02796092  0.80282075     0.38750
C726        C  0.77040781  0.43183566  0.78707874     0.38740
C727        C  0.84814850  0.41876893  0.79596513     0.37160
C728        C  0.79716159  0.03958221  0.80172038     0.37160
N729        N  0.85804613  0.39417901  0.79599181    -0.37660
N730        N  0.78715178  0.06400342  0.80406646    -0.37660
N731        N  0.74910257  0.41262017  0.78307105    -0.37100
N732        N  0.89585302  0.04797897  0.80364712    -0.37110
C733        C  0.06419930  0.14645111  0.72041957    -0.03770
C734        C  0.10247761  0.14157954  0.72742850    -0.00890
C735        C  0.12644771  0.16601515  0.73353196     0.04100
C736        C  0.11266740  0.19546480  0.73225820    -0.03770
C737        C  0.07520523  0.20053028  0.72395743    -0.00880
C738        C  0.05093465  0.17619024  0.71831554     0.04100
C739        C  0.11728611  0.11150138  0.72911258     0.38750
C740        C  0.06136583  0.23085784  0.72163715     0.38740
C741        C  0.01248092  0.18202246  0.70974135     0.37160
C742        C  0.16569370  0.16094818  0.74053948     0.37160
N743        N  0.98180465  0.18670389  0.70297134    -0.37660
N744        N  0.19703777  0.15704388  0.74599525    -0.37660
N745        N  0.05029315  0.25501107  0.71955921    -0.37100
N746        N  0.12938943  0.08758978  0.73037913    -0.37110
C747        C  0.86300980  0.07333341  0.70771687    -0.03770
C748        C  0.84262966  0.05405349  0.68994745    -0.00890
C749        C  0.80371620  0.04883288  0.69402018     0.04100
C750        C  0.78445181  0.06342113  0.71559134    -0.03770
C751        C  0.80386099  0.08614686  0.73045724    -0.00880
C752        C  0.84305668  0.09037522  0.72716674     0.04100
C753        C  0.86171277  0.03927957  0.66742652     0.38750
C754        C  0.78395731  0.10517560  0.74961026     0.38740
C755        C  0.86299925  0.11091372  0.74521324     0.37160
C756        C  0.78432612  0.02749497  0.67648525     0.37160
N757        N  0.87883865  0.12718670  0.75972262    -0.37660
N758        N  0.76911947  0.01045283  0.66236470    -0.37660
N759        N  0.76862893  0.12053726  0.76501945    -0.37100
N760        N  0.87692951  0.02754850  0.64946962    -0.37110
O761        O  0.99510169  0.54767588  0.15845320    -0.56250
C762        C  0.00273147  0.52926695  0.24462975     0.76380
O763        O  0.00360610  0.62176613  0.22221630    -0.57410
C764        C  0.98974643  0.57141367  0.14487396     0.76350
C765        C  0.90504163  0.57412818  0.20679747     0.78740
Cd766      Cd  0.98609389  0.57303397  0.20345766     1.37470
O767        O  0.00563606  0.52293341  0.21939553    -0.56250
O768        O  0.92348799  0.55092770  0.20110528    -0.55060
C769        C  0.03801646  0.62080266  0.21522315     0.78700
O770        O  0.92436566  0.59742125  0.21189896    -0.57430
O771        O  0.99594498  0.55617771  0.25061999    -0.55880
O772        O  0.98450006  0.59511246  0.15835118    -0.55870
O773        O  0.04870577  0.59707559  0.20336778    -0.55040
O774        O  0.00507898  0.01254565  0.29109468    -0.56250
C775        C  0.98733115  0.96576249  0.36534832     0.76380
O776        O  0.92007118  0.94617419  0.29043388    -0.57410
C777        C  0.00251978  0.00616346  0.26586046     0.76350
C778        C  0.03352324  0.91265894  0.29918669     0.78740
Cd779      Cd  0.98388728  0.96266697  0.30703110     1.37470
O780        O  0.99760616  0.98806136  0.35107548    -0.56250
O781        O  0.04459297  0.93705628  0.30979437    -0.55060
C782        C  0.90323274  0.96724258  0.30272236     0.78700
O783        O  0.99920255  0.91184636  0.29178685    -0.57430
O784        O  0.97700241  0.94244823  0.35262054    -0.55880
O785        O  0.99565562  0.97920779  0.25987360    -0.55870
O786        O  0.92364789  0.98407067  0.31730459    -0.55040
O787        O  0.72517587  0.51249469  0.29439783    -0.56250
C788        C  0.63591582  0.56811442  0.26761711     0.76380
O789        O  0.72608837  0.53396583  0.21238965    -0.57410
C790        C  0.74639337  0.99365220  0.28259872     0.76350
C791        C  0.63693885  0.97273329  0.23796553     0.78740
Cd792      Cd  0.68681976  0.52100797  0.25304141     1.37460
O793        O  0.64743949  0.54971475  0.28546911    -0.56250
O794        O  0.64575711  0.97866194  0.26251282    -0.55060
C795        C  0.74741171  0.55160955  0.22594212     0.78700
O796        O  0.65183832  0.98925439  0.21974207    -0.57430
O797        O  0.64742241  0.56435990  0.24333834    -0.55880
O798        O  0.73614526  0.98443626  0.25922921    -0.55870
O799        O  0.73730684  0.55684762  0.25025947    -0.55040
O800        O  0.50600631  0.76470629  0.28946313    -0.56250
C801        C  0.49072918  0.71574716  0.36424897     0.76380
O802        O  0.42100616  0.69651588  0.29257690    -0.57410
C803        C  0.50106447  0.75866668  0.26431529     0.76350
C804        C  0.53570458  0.66662604  0.29323316     0.78740
Cd805      Cd  0.48554609  0.71469054  0.30572040     1.37460
O806        O  0.49844292  0.73899229  0.35045095    -0.56250
O807        O  0.54771891  0.69135260  0.30268476    -0.55060
C808        C  0.40515964  0.71946503  0.30251545     0.78700
O809        O  0.50036847  0.66440854  0.28940213    -0.57430
O810        O  0.48275942  0.69224123  0.35098957    -0.55880
O811        O  0.49304218  0.73187925  0.25838488    -0.55870
O812        O  0.42633590  0.73814140  0.31441513    -0.55040
O813        O  0.50247087  0.77591863  0.21793365    -0.56250
C814        C  0.48649009  0.82401982  0.14400898     0.76380
O815        O  0.41863275  0.84221788  0.21991383    -0.57410
C816        C  0.50015656  0.78196365  0.24324631     0.76350
C817        C  0.53272839  0.87498503  0.21284595     0.78740
Cd818      Cd  0.48195487  0.82608038  0.20247296     1.37460
O819        O  0.49214822  0.80062199  0.15802714    -0.56250
O820        O  0.54444826  0.84985066  0.20450801    -0.55060
C821        C  0.40108632  0.82198381  0.20671539     0.78700
O822        O  0.49737764  0.87742880  0.21623648    -0.57430
O823        O  0.48081341  0.84801732  0.15703351    -0.55880
O824        O  0.49311425  0.80874142  0.24950257    -0.55870
O825        O  0.42084667  0.80590450  0.19123282    -0.55040
O826        O  0.22399069  0.77419398  0.21624510    -0.56250
C827        C  0.13707538  0.72081065  0.24065301     0.76380
O828        O  0.22874791  0.76713088  0.29692220    -0.57410
C829        C  0.24319829  0.79576732  0.22595414     0.76350
C830        C  0.13326720  0.81319368  0.27658992     0.78740
Cd831      Cd  0.18498372  0.76896512  0.25773929     1.37460
O832        O  0.14600146  0.74157162  0.22420361    -0.56250
O833        O  0.14076067  0.80968618  0.25147953    -0.55060
C834        C  0.24722057  0.74536431  0.28721906     0.78700
O835        O  0.14900180  0.79569536  0.29343794    -0.57430
O836        O  0.14993926  0.72259170  0.26481041    -0.55880
O837        O  0.23033907  0.80818087  0.24717483    -0.55870
O838        O  0.23278050  0.73158679  0.26713851    -0.55040
O839        O  0.97471237  0.51472535  0.46951096    -0.56250
C840        C  0.98778952  0.96614416  0.39528090     0.76380
O841        O  0.05314536  0.93868424  0.46519316    -0.57410
C842        C  0.97771542  0.00875322  0.49477699     0.76350
C843        C  0.94126683  0.91694937  0.46665909     0.78740
Cd844      Cd  0.99308215  0.96406294  0.45384733     1.37470
O845        O  0.98686122  0.99011115  0.40911812    -0.56250
O846        O  0.93009976  0.94067409  0.45508252    -0.55060
C847        C  0.07382664  0.96036971  0.45775860     0.78700
O848        O  0.97611495  0.91532542  0.47225391    -0.57430
O849        O  0.98912254  0.94195725  0.40850545    -0.55880
O850        O  0.98413574  0.98188352  0.50094134    -0.55870
O851        O  0.05699887  0.98304505  0.44870359    -0.55040
O852        O  0.97569636  0.52608986  0.04112122    -0.56250
C853        C  0.99007696  0.57227683  0.11495115     0.76380
O854        O  0.05824471  0.59280885  0.03859791    -0.57410
C855        C  0.97809944  0.53212713  0.01584426     0.76350
C856        C  0.94437708  0.62580486  0.04864187     0.78740
Cd857      Cd  0.99518369  0.57664568  0.05679354     1.37460
O858        O  0.98421126  0.54928642  0.10022895    -0.56250
O859        O  0.93350228  0.60087614  0.05815495    -0.55060
C860        C  0.07647435  0.57552158  0.05427207     0.78700
O861        O  0.97910642  0.62774454  0.04260288    -0.57430
O862        O  0.99621470  0.59670946  0.10268921    -0.55880
O863        O  0.98463464  0.55903874  0.00966717    -0.55870
O864        O  0.05694472  0.56108485  0.07126387    -0.55040
O865        O  0.32732267  0.98947097  0.03580159    -0.56250
C866        C  0.23261601  0.54973210  0.03217762     0.76380
O867        O  0.32025551  0.55340057  0.46962996    -0.57410
C868        C  0.34066491  0.97198536  0.01779130     0.76350
C869        C  0.22984410  0.98528311  0.47919865     0.78740
Cd870      Cd  0.29008636  0.51910334  0.00321376     1.37470
O871        O  0.25537451  0.53287673  0.04494308    -0.56250
O872        O  0.23952065  0.98375269  0.00405676    -0.55060
C873        C  0.34097792  0.56634203  0.48737539     0.78700
O874        O  0.25110148  0.50116033  0.46395463    -0.57430
O875        O  0.24032885  0.55545458  0.00745230    -0.55880
O876        O  0.33037508  0.97669626  0.49332577    -0.55870
O877        O  0.33782257  0.55654989  0.01153542    -0.55040
O878        O  0.47373388  0.76380412  0.46789821    -0.56250
C879        C  0.49100418  0.71554828  0.39420935     0.76380
O880        O  0.55789324  0.69691989  0.46982549    -0.57410
C881        C  0.47527121  0.75781375  0.49322467     0.76350
C882        C  0.44463559  0.66445472  0.46268987     0.78740
Cd883      Cd  0.49467137  0.71359030  0.45272278     1.37460
O884        O  0.48442657  0.73879052  0.40829509    -0.56250
O885        O  0.43340868  0.68799617  0.45090693    -0.55060
C886        C  0.57544364  0.71775629  0.45757469     0.78700
O887        O  0.47908886  0.66349168  0.46968064    -0.57430
O888        O  0.49748943  0.69166705  0.40716761    -0.55880
O889        O  0.48170714  0.73099534  0.49954398    -0.55870
O890        O  0.55569091  0.73451953  0.44273262    -0.55040
O891        O  0.46989809  0.77526614  0.03944455    -0.56250
C892        C  0.48668316  0.82388722  0.11405786     0.76380
O893        O  0.55539478  0.84235904  0.04102696    -0.57410
C894        C  0.47448700  0.78119903  0.01427870     0.76350
C895        C  0.44172836  0.87388914  0.04385678     0.78740
Cd896      Cd  0.49113144  0.82523126  0.05558956     1.37470
O897        O  0.47848996  0.80076286  0.10012598    -0.56250
O898        O  0.42946130  0.84958825  0.05391220    -0.55060
C899        C  0.57156171  0.82024846  0.05216078     0.78700
O900        O  0.47691527  0.87562581  0.03932391    -0.57430
O901        O  0.49487176  0.84739087  0.10094881    -0.55880
O902        O  0.48251502  0.80793774  0.00832254    -0.55870
O903        O  0.55063896  0.80251405  0.06530636    -0.55040
O904        O  0.75357480  0.76357316  0.46701758    -0.56250
C905        C  0.84147432  0.81757661  0.49357380     0.76380
O906        O  0.74854100  0.77327843  0.04792774    -0.57410
C907        C  0.73341989  0.74291072  0.47734060     0.76350
C908        C  0.84270978  0.72403804  0.02635894     0.78740
Cd909      Cd  0.79202615  0.76951754  0.00875674     1.37460
O910        O  0.83067609  0.79831900  0.47606156    -0.56250
O911        O  0.83220472  0.72646131  0.50169467    -0.55060
C912        C  0.72970113  0.79422357  0.03710692     0.78700
O913        O  0.83019991  0.74302895  0.04333440    -0.57430
O914        O  0.82926373  0.81413219  0.01772028    -0.55880
O915        O  0.74527358  0.73125633  0.99922849    -0.55870
O916        O  0.74381327  0.80671560  0.01630725    -0.55040
C917        C  0.61262413  0.81420328  0.04964626    -0.03770
C918        C  0.63959819  0.83760955  0.04997181    -0.00890
C919        C  0.67840273  0.83112956  0.04749033     0.04100
C920        C  0.69060781  0.80121297  0.04552156    -0.03770
C921        C  0.66370178  0.77779353  0.04609242    -0.00880
C922        C  0.62498866  0.78425418  0.04735955     0.04100
C923        C  0.62762770  0.86834169  0.05307397     0.38750
C924        C  0.67542386  0.74686028  0.04360093     0.38740
C925        C  0.59791338  0.75992500  0.04430060     0.37160
C926        C  0.70586382  0.85527208  0.04703398     0.37160
N927        N  0.57643319  0.74054647  0.04164826    -0.37660
N928        N  0.72778983  0.87452952  0.04663987    -0.37660
N929        N  0.68431413  0.72210453  0.04175321    -0.37100
N930        N  0.61808221  0.89287464  0.05555960    -0.37110
C931        C  0.61672551  0.72343437  0.46067140    -0.03770
C932        C  0.63057333  0.75323559  0.46002507    -0.00940
C933        C  0.66942816  0.75917876  0.46268220     0.04100
C934        C  0.69500382  0.73557664  0.46711318    -0.03770
C935        C  0.68138526  0.70582258  0.46751063    -0.00880
C936        C  0.64247981  0.69973472  0.46413654     0.04100
C937        C  0.60474813  0.77828721  0.45867897     0.38750
C938        C  0.70747896  0.68138530  0.47142139     0.38740
C939        C  0.62916259  0.66903191  0.46424415     0.37160
C940        C  0.68246660  0.79003636  0.46289393     0.37160
N941        N  0.61856474  0.64451845  0.46440002    -0.37660
N942        N  0.69260838  0.81467050  0.46303175    -0.37660
N943        N  0.72824537  0.66184000  0.47449085    -0.37100
N944        N  0.58427608  0.79829529  0.45776653    -0.37110
C945        C  0.41837521  0.63946098  0.46868373    -0.03770
C946        C  0.41044535  0.63198601  0.49602808    -0.00890
C947        C  0.38490550  0.60865591  0.00213006     0.04100
C948        C  0.36753730  0.59172072  0.48070762    -0.03770
C949        C  0.37595505  0.59946966  0.45311999    -0.00880
C950        C  0.40080210  0.62346408  0.44726841     0.04100
C951        C  0.42776339  0.64912301  0.01806582     0.38750
C952        C  0.35986359  0.58272970  0.43042788     0.38740
C953        C  0.40903246  0.63134260  0.41906675     0.37160
C954        C  0.37632919  0.60301796  0.03073363     0.37160
N955        N  0.41559618  0.63767413  0.39660282    -0.37660
N956        N  0.36966463  0.59874661  0.05359202    -0.37660
N957        N  0.34723361  0.56949105  0.41217414    -0.37100
N958        N  0.44149831  0.66280096  0.03561312    -0.37110
C959        C  0.41605695  0.89905131  0.03742105    -0.03770
C960        C  0.38910203  0.90867389  0.05673717    -0.00890
C961        C  0.36454770  0.93243467  0.05045031     0.04100
C962        C  0.36695444  0.94712384  0.02479582    -0.03770
C963        C  0.39429166  0.93747325  0.00557233    -0.00880
C964        C  0.41835677  0.91344089  0.01178588     0.04100
C965        C  0.38715155  0.89460997  0.08346529     0.38750
C966        C  0.39855675  0.95250972  0.47943295     0.38740
C967        C  0.44462155  0.90278720  0.49123814     0.37160
C968        C  0.33615167  0.94100098  0.07029223     0.37160
N969        N  0.46541360  0.89420669  0.47481391    -0.37660
N970        N  0.31354397  0.94776152  0.08616257    -0.37660
N971        N  0.40207480  0.96437893  0.45855076    -0.37100
N972        N  0.38559240  0.88347806  0.10480593    -0.37110
C973        C  0.86797228  0.69955060  0.03467637    -0.03770
C974        C  0.85401627  0.67005786  0.03545542    -0.00890
C975        C  0.87864475  0.64600926  0.04030162     0.04100
C976        C  0.91776089  0.65133532  0.04468399    -0.03770
C977        C  0.93119102  0.68133111  0.04508657    -0.00880
C978        C  0.90638062  0.70522933  0.03991200     0.04100
C979        C  0.81399699  0.66453569  0.03135670     0.38750
C980        C  0.97038199  0.68799205  0.05127893     0.38740
C981        C  0.92055496  0.73571350  0.03923763     0.37160
C982        C  0.86337340  0.61585254  0.03982216     0.37160
N983        N  0.93186691  0.76001760  0.03863362    -0.37660
N984        N  0.85085962  0.59190303  0.03944134    -0.37660
N985        N  0.00161330  0.69340431  0.05622333    -0.37100
N986        N  0.78205947  0.66027337  0.02825960    -0.37110
C987        C  0.11818576  0.57103636  0.05245071    -0.03770
C988        C  0.13416588  0.54342888  0.06078037    -0.00890
C989        C  0.17290216  0.53797139  0.05707731     0.04100
C990        C  0.19601669  0.55935910  0.04393393    -0.03770
C991        C  0.18081592  0.58749998  0.03712896    -0.00880
C992        C  0.14222108  0.59345480  0.04160501     0.04100
C993        C  0.11066143  0.51933439  0.07130052     0.38750
C994        C  0.20494407  0.61033955  0.02526733     0.38740
C995        C  0.12746835  0.62267825  0.03483983     0.37160
C996        C  0.18813594  0.50918864  0.06501545     0.37160
N997        N  0.11576665  0.64601776  0.02943284    -0.37660
N998        N  0.20014123  0.98627187  0.07147236    -0.37660
N999        N  0.22420217  0.62855218  0.01581144    -0.37100
N1000       N  0.09211993  0.99997172  0.07954138    -0.37110
C1001       C  0.91499803  0.89212209  0.47353103    -0.03770
C1002       C  0.91611287  0.87915729  0.49983139    -0.00890
C1003       C  0.89265998  0.85459746  0.00619094     0.04100
C1004       C  0.86707216  0.84302103  0.48642780    -0.03770
C1005       C  0.86563713  0.85639650  0.46015238    -0.00880
C1006       C  0.88958608  0.88073832  0.45374599     0.04100
C1007       C  0.94065340  0.89171073  0.02079345     0.38750
C1008       C  0.83897885  0.84573986  0.43972030     0.38740
C1009       C  0.88876995  0.89349222  0.42644581     0.37160
C1010       C  0.89592192  0.84090487  0.03301345     0.37160
N1011       N  0.88812100  0.90359551  0.40465631    -0.37660
N1012       N  0.89863852  0.83010563  0.05443211    -0.37660
N1013       N  0.81777794  0.83729889  0.42336371    -0.37100
N1014       N  0.96007199  0.90180417  0.03752931    -0.37110
C1015       C  0.11559382  0.96017846  0.46016800    -0.03770
C1016       C  0.13802223  0.97385399  0.43975849    -0.00890
C1017       C  0.17667233  0.97961745  0.44455261     0.04100
C1018       C  0.19339168  0.97136829  0.46979557    -0.03770
C1019       C  0.17200509  0.95332847  0.48814784    -0.00880
C1020       C  0.13309314  0.94869850  0.48381192     0.04100
C1021       C  0.12117824  0.98235895  0.41381579     0.38750
C1022       C  0.18948538  0.93964960  0.01188373     0.38740
C1023       C  0.11070833  0.93415264  0.00486827     0.37160
C1024       C  0.19852181  0.99469932  0.42358251     0.37160
N1025       N  0.09287675  0.92276885  0.02176486    -0.37660
N1026       N  0.21573901  0.00665872  0.40668405    -0.37660
N1027       N  0.20321359  0.92857132  0.03079373    -0.37100
N1028       N  0.10770055  0.98905463  0.39314174    -0.37110
C1029       C  0.28162376  0.80342733  0.21586877    -0.03770
C1030       C  0.30742961  0.78003150  0.21104347    -0.00890
C1031       C  0.34620755  0.78624826  0.20832735     0.04100
C1032       C  0.35981987  0.81608961  0.20953194    -0.03770
C1033       C  0.33389497  0.83959028  0.21337674    -0.00880
C1034       C  0.29503166  0.83326525  0.21664862     0.04100
C1035       C  0.29480288  0.74906653  0.21100946     0.38750
C1036       C  0.34702583  0.87033559  0.21395905     0.38740
C1037       C  0.26882412  0.85753539  0.22107661     0.37160
C1038       C  0.37225756  0.76139247  0.20631380     0.37160
N1039       N  0.24792046  0.87689062  0.22466897    -0.37660
N1040       N  0.39291908  0.74154584  0.20484296    -0.37660
N1041       N  0.35748984  0.89487995  0.21447775    -0.37100
N1042       N  0.28496890  0.72435450  0.21100147    -0.37110
C1043       C  0.36417351  0.72550816  0.29988922    -0.03770
C1044       C  0.35228113  0.75507207  0.29457575    -0.00890
C1045       C  0.31368084  0.76189529  0.29365164     0.04100
C1046       C  0.28637052  0.73889630  0.29583664    -0.03770
C1047       C  0.29807514  0.70930623  0.30087052    -0.00880
C1048       C  0.33685790  0.70271264  0.30348168     0.04100
C1049       C  0.37966266  0.77834559  0.28813616     0.38750
C1050       C  0.27011221  0.68576176  0.30378249     0.38740
C1051       C  0.34849974  0.67264240  0.31030487     0.37160
C1052       C  0.30242083  0.79264416  0.28916060     0.37160
N1053       N  0.35781372  0.64867057  0.31586506    -0.37660
N1054       N  0.29405461  0.81733557  0.28591778    -0.37660
N1055       N  0.24776415  0.66699715  0.30618026    -0.37100
N1056       N  0.40138601  0.79682234  0.28274338    -0.37110
C1057       C  0.61056500  0.59322722  0.27466052    -0.03770
C1058       C  0.57474975  0.58766077  0.28612576    -0.00890
C1059       C  0.55041024  0.61155999  0.29228993     0.04100
C1060       C  0.56169514  0.64141973  0.28704587    -0.03770
C1061       C  0.59781852  0.64694616  0.27570040    -0.00880
C1062       C  0.62189046  0.62293482  0.26928845     0.04100
C1063       C  0.56205112  0.55722975  0.29051523     0.38750
C1064       C  0.61012877  0.67725079  0.26984725     0.38740
C1065       C  0.65851418  0.62887329  0.25718504     0.37160
C1066       C  0.51404887  0.60522827  0.30467678     0.37160
N1067       N  0.68757242  0.63366982  0.24734664    -0.37660
N1068       N  0.48506070  0.60013443  0.31452588    -0.37660
N1069       N  0.62018515  0.70136991  0.26521685    -0.37100
N1070       N  0.55120757  0.53311701  0.29397714    -0.37110
C1071       C  0.61022389  0.94775947  0.23122765    -0.03770
C1072       C  0.61514433  0.93023946  0.20733694    -0.00890
C1073       C  0.58991408  0.90651451  0.20127808     0.04100
C1074       C  0.55919883  0.90017915  0.21885927    -0.03770
C1075       C  0.55434467  0.91756504  0.24274102    -0.00880
C1076       C  0.57988865  0.94086568  0.24908440     0.04100
C1077       C  0.64717157  0.93558816  0.18950328     0.38750
C1078       C  0.52374753  0.91085135  0.26154118     0.38740
C1079       C  0.57475655  0.95734845  0.27439017     0.37160
C1080       C  0.59535776  0.88898210  0.17658451     0.37160
N1081       N  0.57065651  0.96981537  0.29492654    -0.37660
N1082       N  0.59984209  0.87500625  0.15690860    -0.37660
N1083       N  0.49937143  0.90558968  0.27653721    -0.37100
N1084       N  0.67276711  0.93973431  0.17530785    -0.37110
C1085       C  0.05940942  0.88648168  0.29552047    -0.03770
C1086       C  0.04454069  0.85720533  0.29132021    -0.00890
C1087       C  0.06886964  0.83296080  0.28630767     0.04100
C1088       C  0.10810923  0.83747956  0.28552362    -0.03770
C1089       C  0.12332552  0.86595459  0.29105433    -0.00880
C1090       C  0.09930039  0.89038573  0.29604168     0.04100
C1091       C  0.00425008  0.85148726  0.29245445     0.38750
C1092       C  0.16399384  0.87011596  0.29118684     0.38740
C1093       C  0.11629135  0.91949459  0.30093831     0.37160
C1094       C  0.05351898  0.80318080  0.28202737     0.37160
N1095       N  0.13022489  0.94256415  0.30490462    -0.37660
N1096       N  0.04116777  0.77942691  0.27887041    -0.37660
N1097       N  0.19640666  0.87326207  0.29133578    -0.37100
N1098       N  0.97214737  0.84678129  0.29330340    -0.37110
C1099       C  0.86202619  0.97310290  0.29994437    -0.03770
C1100       C  0.84877453  0.00292085  0.30139208    -0.00890
C1101       C  0.80999487  0.50895032  0.29927692     0.04100
C1102       C  0.78414968  0.98569625  0.29335124    -0.03770
C1103       C  0.79705687  0.95593612  0.29214482    -0.00880
C1104       C  0.83570743  0.94956265  0.29599842     0.04100
C1105       C  0.87504379  0.52796093  0.30282071     0.38750
C1106       C  0.77040778  0.93183567  0.28707880     0.38740
C1107       C  0.84814847  0.91876893  0.29596518     0.37160
C1108       C  0.79716161  0.53958223  0.30172037     0.37160
N1109       N  0.85804609  0.89417901  0.29599188    -0.37660
N1110       N  0.78715180  0.56400344  0.30406643    -0.37660
N1111       N  0.74910253  0.91262018  0.28307112    -0.37100
N1112       N  0.89585304  0.54797897  0.30364705    -0.37110
C1113       C  0.06419929  0.64645110  0.22041957    -0.03770
C1114       C  0.10247760  0.64157953  0.22742849    -0.00890
C1115       C  0.12644770  0.66601514  0.23353195     0.04100
C1116       C  0.11266739  0.69546479  0.23225820    -0.03770
C1117       C  0.07520521  0.70053027  0.22395745    -0.00880
C1118       C  0.05093463  0.67619023  0.21831556     0.04100
C1119       C  0.11728611  0.61150137  0.22911255     0.38750
C1120       C  0.06136580  0.73085783  0.22163718     0.38740
C1121       C  0.01248090  0.68202246  0.20974138     0.37160
C1122       C  0.16569369  0.66094817  0.24053946     0.37160
N1123       N  0.98180462  0.68670388  0.20297138    -0.37660
N1124       N  0.19703776  0.65704387  0.24599522    -0.37660
N1125       N  0.05029312  0.75501106  0.21955926    -0.37100
N1126       N  0.12938943  0.58758977  0.23037909    -0.37110
C1127       C  0.86300979  0.57333340  0.20771687    -0.03770
C1128       C  0.84262965  0.55405347  0.18994745    -0.00890
C1129       C  0.80371619  0.54883285  0.19402019     0.04100
C1130       C  0.78445180  0.56342112  0.21559134    -0.03770
C1131       C  0.80386097  0.58614686  0.23045723    -0.00880
C1132       C  0.84305667  0.59037522  0.22716673     0.04100
C1133       C  0.86171276  0.53927953  0.16742653     0.38750
C1134       C  0.78395729  0.60517560  0.24961024     0.38740
C1135       C  0.86299924  0.61091372  0.24521322     0.37160
C1136       C  0.78432611  0.52749493  0.17648527     0.37160
N1137       N  0.87883863  0.62718672  0.25972259    -0.37660
N1138       N  0.76911946  0.51045279  0.16236472    -0.37660
N1139       N  0.76862891  0.62053727  0.26501943    -0.37100
N1140       N  0.87692950  0.52754846  0.14946964    -0.37110
O1141       O  0.99510170  0.54767588  0.65845320    -0.56250
C1142       C  0.00273149  0.52926696  0.74462976     0.76380
O1143       O  0.00360612  0.62176614  0.72221629    -0.57410
C1144       C  0.98974644  0.57141367  0.64487396     0.76350
C1145       C  0.90504165  0.57412818  0.70679747     0.78740
Cd1146     Cd  0.98609391  0.57303397  0.70345766     1.37470
O1147       O  0.00563609  0.52293341  0.71939553    -0.56250
O1148       O  0.92348801  0.55092771  0.70110528    -0.55060
C1149       C  0.03801649  0.62080267  0.71522315     0.78700
O1150       O  0.92436568  0.59742126  0.71189897    -0.57430
O1151       O  0.99594499  0.55617771  0.75062000    -0.55880
O1152       O  0.98450007  0.59511247  0.65835119    -0.55870
O1153       O  0.04870579  0.59707559  0.70336778    -0.55040
O1154       O  0.00507899  0.01254567  0.79109470    -0.56250
C1155       C  0.98733115  0.96576250  0.86534832     0.76380
O1156       O  0.92007120  0.94617420  0.79043387    -0.57410
C1157       C  0.00251980  0.00616348  0.76586048     0.76350
C1158       C  0.03352325  0.91265895  0.79918670     0.78740
Cd1159     Cd  0.98388729  0.96266699  0.80703110     1.37470
O1160       O  0.99760617  0.98806137  0.85107549    -0.56250
O1161       O  0.04459298  0.93705629  0.80979438    -0.55060
C1162       C  0.90323276  0.96724259  0.80272235     0.78700
O1163       O  0.99920256  0.91184637  0.79178685    -0.57430
O1164       O  0.97700240  0.94244824  0.85262054    -0.55880
O1165       O  0.99565566  0.97920780  0.75987361    -0.55870
O1166       O  0.92364789  0.98407067  0.81730458    -0.55040
O1167       O  0.72517587  0.51249467  0.79439781    -0.56250
C1168       C  0.63591583  0.56811442  0.76761709     0.76380
O1169       O  0.72608839  0.53396585  0.71238964    -0.57410
C1170       C  0.74639339  0.99365219  0.78259869     0.76350
C1171       C  0.63693886  0.97273329  0.73796550     0.78740
Cd1172     Cd  0.68681977  0.52100796  0.75304139     1.37460
O1173       O  0.64743950  0.54971474  0.78546909    -0.56250
O1174       O  0.64575713  0.97866194  0.76251279    -0.55060
C1175       C  0.74741173  0.55160956  0.72594211     0.78700
O1176       O  0.65183833  0.98925439  0.71974205    -0.57430
O1177       O  0.64742242  0.56435990  0.74333832    -0.55880
O1178       O  0.73614528  0.98443626  0.75922918    -0.55870
O1179       O  0.73730686  0.55684761  0.75025947    -0.55040
O1180       O  0.50600631  0.76470628  0.78946312    -0.56250
C1181       C  0.49072917  0.71574716  0.86424896     0.76380
O1182       O  0.42100617  0.69651587  0.79257689    -0.57410
C1183       C  0.50106447  0.75866667  0.76431528     0.76350
C1184       C  0.53570458  0.66662604  0.79323316     0.78740
Cd1185     Cd  0.48554609  0.71469053  0.80572039     1.37460
O1186       O  0.49844291  0.73899229  0.85045094    -0.56250
O1187       O  0.54771891  0.69135259  0.80268475    -0.55060
C1188       C  0.40515965  0.71946502  0.80251544     0.78700
O1189       O  0.50036848  0.66440853  0.78940212    -0.57430
O1190       O  0.48275942  0.69224122  0.85098957    -0.55880
O1191       O  0.49304218  0.73187924  0.75838488    -0.55870
O1192       O  0.42633590  0.73814138  0.81441512    -0.55040
O1193       O  0.50247086  0.77591862  0.71793365    -0.56250
C1194       C  0.48649009  0.82401981  0.64400898     0.76380
O1195       O  0.41863276  0.84221788  0.71991384    -0.57410
C1196       C  0.50015656  0.78196365  0.74324630     0.76350
C1197       C  0.53272839  0.87498503  0.71284594     0.78740
Cd1198     Cd  0.48195487  0.82608038  0.70247296     1.37460
O1199       O  0.49214822  0.80062199  0.65802714    -0.56250
O1200       O  0.54444827  0.84985066  0.70450801    -0.55060
C1201       C  0.40108632  0.82198382  0.70671539     0.78700
O1202       O  0.49737764  0.87742880  0.71623647    -0.57430
O1203       O  0.48081342  0.84801732  0.65703351    -0.55880
O1204       O  0.49311426  0.80874141  0.74950257    -0.55870
O1205       O  0.42084667  0.80590452  0.69123281    -0.55040
O1206       O  0.22399069  0.77419401  0.71624509    -0.56250
C1207       C  0.13707539  0.72081066  0.74065301     0.76380
O1208       O  0.22874791  0.76713087  0.79692219    -0.57410
C1209       C  0.24319828  0.79576735  0.72595414     0.76350
C1210       C  0.13326720  0.81319368  0.77658992     0.78740
Cd1211     Cd  0.18498373  0.76896514  0.75773929     1.37460
O1212       O  0.14600147  0.74157163  0.72420360    -0.56250
O1213       O  0.14076061  0.80968616  0.75147953    -0.55060
C1214       C  0.24722057  0.74536430  0.78721904     0.78700
O1215       O  0.14900186  0.79569540  0.79343794    -0.57430
O1216       O  0.14993927  0.72259172  0.76481040    -0.55880
O1217       O  0.23033908  0.80818088  0.74717483    -0.55870
O1218       O  0.23278051  0.73158679  0.76713848    -0.55040
O1219       O  0.97471237  0.51472535  0.96951096    -0.56250
C1220       C  0.98778951  0.96614416  0.89528090     0.76380
O1221       O  0.05314535  0.93868423  0.96519316    -0.57410
C1222       C  0.97771540  0.00875321  0.99477699     0.76350
C1223       C  0.94126682  0.91694935  0.96665910     0.78740
Cd1224     Cd  0.99308214  0.96406293  0.95384733     1.37470
O1225       O  0.98686123  0.99011115  0.90911813    -0.56250
O1226       O  0.93009975  0.94067409  0.95508253    -0.55060
C1227       C  0.07382663  0.96036969  0.95775860     0.78700
O1228       O  0.97611494  0.91532541  0.97225390    -0.57430
O1229       O  0.98912251  0.94195724  0.90850545    -0.55880
O1230       O  0.98413574  0.98188351  0.00094134    -0.55870
O1231       O  0.05699885  0.98304503  0.94870359    -0.55040
O1232       O  0.97569634  0.52608987  0.54112122    -0.56250
C1233       C  0.99007696  0.57227683  0.61495115     0.76380
O1234       O  0.05824472  0.59280885  0.53859793    -0.57410
C1235       C  0.97809943  0.53212713  0.51584426     0.76350
C1236       C  0.94437709  0.62580486  0.54864187     0.78740
Cd1237     Cd  0.99518369  0.57664568  0.55679354     1.37460
O1238       O  0.98421126  0.54928642  0.60022896    -0.56250
O1239       O  0.93350228  0.60087614  0.55815496    -0.55060
C1240       C  0.07647434  0.57552157  0.55427208     0.78700
O1241       O  0.97910642  0.62774453  0.54260286    -0.57430
O1242       O  0.99621470  0.59670946  0.60268921    -0.55880
O1243       O  0.98463465  0.55903873  0.50966717    -0.55870
O1244       O  0.05694471  0.56108483  0.57126387    -0.55040
O1245       O  0.32732269  0.98947097  0.53580160    -0.56250
C1246       C  0.23261601  0.54973210  0.53217765     0.76380
O1247       O  0.32025552  0.55340055  0.96962994    -0.57410
C1248       C  0.34066492  0.97198536  0.51779131     0.76350
C1249       C  0.22984409  0.98528311  0.97919864     0.78740
Cd1250     Cd  0.29008635  0.51910336  0.50321378     1.37470
O1251       O  0.25537452  0.53287674  0.54494310    -0.56250
O1252       O  0.23952067  0.98375268  0.50405677    -0.55060
C1253       C  0.34097793  0.56634201  0.98737538     0.78700
O1254       O  0.25110149  0.50116031  0.96395461    -0.57430
O1255       O  0.24032885  0.55545459  0.50745233    -0.55880
O1256       O  0.33037506  0.97669626  0.99332576    -0.55870
O1257       O  0.33782257  0.55654990  0.51153543    -0.55040
O1258       O  0.47373387  0.76380412  0.96789821    -0.56250
C1259       C  0.49100417  0.71554827  0.89420934     0.76380
O1260       O  0.55789323  0.69691989  0.96982548    -0.57410
C1261       C  0.47527120  0.75781375  0.99322467     0.76350
C1262       C  0.44463559  0.66445471  0.96268986     0.78740
Cd1263     Cd  0.49467136  0.71359031  0.95272277     1.37460
O1264       O  0.48442655  0.73879051  0.90829509    -0.56250
O1265       O  0.43340867  0.68799617  0.95090692    -0.55060
C1266       C  0.57544363  0.71775630  0.95757468     0.78700
O1267       O  0.47908886  0.66349168  0.96968064    -0.57430
O1268       O  0.49748942  0.69166705  0.90716761    -0.55880
O1269       O  0.48170713  0.73099534  0.99954397    -0.55870
O1270       O  0.55569090  0.73451954  0.94273262    -0.55040
O1271       O  0.46989811  0.77526614  0.53944456    -0.56250
C1272       C  0.48668317  0.82388722  0.61405787     0.76380
O1273       O  0.55539479  0.84235903  0.54102695    -0.57410
C1274       C  0.47448702  0.78119902  0.51427871     0.76350
C1275       C  0.44172837  0.87388914  0.54385679     0.78740
Cd1276     Cd  0.49113145  0.82523126  0.55558956     1.37470
O1277       O  0.47848998  0.80076285  0.60012598    -0.56250
O1278       O  0.42946132  0.84958824  0.55391220    -0.55060
C1279       C  0.57156173  0.82024847  0.55216078     0.78700
O1280       O  0.47691528  0.87562582  0.53932392    -0.57430
O1281       O  0.49487177  0.84739087  0.60094882    -0.55880
O1282       O  0.48251503  0.80793774  0.50832254    -0.55870
O1283       O  0.55063898  0.80251406  0.56530637    -0.55040
O1284       O  0.75357479  0.76357316  0.96701757    -0.56250
C1285       C  0.84147430  0.81757659  0.99357379     0.76380
O1286       O  0.74854102  0.77327846  0.54792775    -0.57410
C1287       C  0.73341988  0.74291072  0.97734058     0.76350
C1288       C  0.84270980  0.72403805  0.52635894     0.78740
Cd1289     Cd  0.79202616  0.76951755  0.50875674     1.37460
O1290       O  0.83067607  0.79831899  0.97606156    -0.56250
O1291       O  0.83220469  0.72646128  0.00169467    -0.55060
C1292       C  0.72970115  0.79422359  0.53710692     0.78700
O1293       O  0.83019991  0.74302895  0.54333440    -0.57430
O1294       O  0.82926374  0.81413220  0.51772029    -0.55880
O1295       O  0.74527359  0.73125634  0.49922851    -0.55870
O1296       O  0.74381328  0.80671560  0.51630724    -0.55040
C1297       C  0.61262415  0.81420329  0.54964627    -0.03770
C1298       C  0.63959820  0.83760957  0.54997180    -0.00890
C1299       C  0.67840274  0.83112958  0.54749032     0.04100
C1300       C  0.69060783  0.80121299  0.54552156    -0.03770
C1301       C  0.66370180  0.77779354  0.54609244    -0.00880
C1302       C  0.62498868  0.78425419  0.54735956     0.04100
C1303       C  0.62762771  0.86834170  0.55307395     0.38750
C1304       C  0.67542389  0.74686030  0.54360095     0.38740
C1305       C  0.59791341  0.75992500  0.54430064     0.37160
C1306       C  0.70586383  0.85527210  0.54703396     0.37160
N1307       N  0.57643322  0.74054647  0.54164831    -0.37660
N1308       N  0.72778984  0.87452954  0.54663983    -0.37660
N1309       N  0.68431417  0.72210455  0.54175325    -0.37100
N1310       N  0.61808222  0.89287466  0.55555956    -0.37110
C1311       C  0.61672550  0.72343437  0.96067139    -0.03770
C1312       C  0.63057333  0.75323560  0.96002506    -0.00940
C1313       C  0.66942815  0.75917876  0.96268219     0.04100
C1314       C  0.69500381  0.73557664  0.96711317    -0.03770
C1315       C  0.68138526  0.70582258  0.96751060    -0.00880
C1316       C  0.64247980  0.69973473  0.96413651     0.04100
C1317       C  0.60474812  0.77828721  0.95867897     0.38750
C1318       C  0.70747896  0.68138530  0.97142135     0.38740
C1319       C  0.62916258  0.66903191  0.96424412     0.37160
C1320       C  0.68246659  0.79003636  0.96289393     0.37160
N1321       N  0.61856473  0.64451845  0.96439998    -0.37660
N1322       N  0.69260838  0.81467050  0.96303175    -0.37660
N1323       N  0.72824536  0.66183999  0.97449080    -0.37100
N1324       N  0.58427608  0.79829529  0.95776653    -0.37110
C1325       C  0.41837521  0.63946098  0.96868372    -0.03770
C1326       C  0.41044536  0.63198599  0.99602808    -0.00890
C1327       C  0.38490548  0.60865593  0.50213007     0.04100
C1328       C  0.36753731  0.59172071  0.98070760    -0.03770
C1329       C  0.37595505  0.59946965  0.95311998    -0.00880
C1330       C  0.40080210  0.62346408  0.94726840     0.04100
C1331       C  0.42776338  0.64912303  0.51806583     0.38750
C1332       C  0.35986359  0.58272970  0.93042787     0.38740
C1333       C  0.40903246  0.63134260  0.91906674     0.37160
C1334       C  0.37632916  0.60301799  0.53073364     0.37160
N1335       N  0.41559618  0.63767414  0.89660281    -0.37660
N1336       N  0.36966460  0.59874664  0.55359203    -0.37660
N1337       N  0.34723361  0.56949105  0.91217413    -0.37100
N1338       N  0.44149830  0.66280098  0.53561312    -0.37110
C1339       C  0.41605696  0.89905131  0.53742105    -0.03770
C1340       C  0.38910203  0.90867388  0.55673717    -0.00890
C1341       C  0.36454769  0.93243466  0.55045031     0.04100
C1342       C  0.36695446  0.94712384  0.52479583    -0.03770
C1343       C  0.39429169  0.93747326  0.50557234    -0.00880
C1344       C  0.41835680  0.91344091  0.51178589     0.04100
C1345       C  0.38715153  0.89460995  0.58346528     0.38750
C1346       C  0.39855670  0.95250968  0.97943293     0.38740
C1347       C  0.44462150  0.90278716  0.99123813     0.37160
C1348       C  0.33615165  0.94100096  0.57029223     0.37160
N1349       N  0.46541353  0.89420664  0.97481389    -0.37660
N1350       N  0.31354394  0.94776148  0.58616256    -0.37660
N1351       N  0.40207474  0.96437888  0.95855073    -0.37100
N1352       N  0.38559237  0.88347802  0.60480591    -0.37110
C1353       C  0.86797229  0.69955061  0.53467637    -0.03770
C1354       C  0.85401627  0.67005788  0.53545544    -0.00890
C1355       C  0.87864475  0.64600928  0.54030164     0.04100
C1356       C  0.91776090  0.65133533  0.54468399    -0.03770
C1357       C  0.93119104  0.68133112  0.54508654    -0.00880
C1358       C  0.90638064  0.70522934  0.53991197     0.04100
C1359       C  0.81399699  0.66453571  0.53135675     0.38750
C1360       C  0.97038202  0.68799205  0.55127887     0.38740
C1361       C  0.92055499  0.73571350  0.53923757     0.37160
C1362       C  0.86337338  0.61585255  0.53982222     0.37160
N1363       N  0.93186695  0.76001760  0.53863354    -0.37660
N1364       N  0.85085960  0.59190305  0.53944142    -0.37660
N1365       N  0.00161334  0.69340431  0.55622325    -0.37100
N1366       N  0.78205946  0.66027340  0.52825967    -0.37110
C1367       C  0.11818576  0.57103636  0.55245074    -0.03770
C1368       C  0.13416589  0.54342888  0.56078040    -0.00890
C1369       C  0.17290217  0.53797140  0.55707734     0.04100
C1370       C  0.19601669  0.55935911  0.54393397    -0.03770
C1371       C  0.18081592  0.58749999  0.53712899    -0.00880
C1372       C  0.14222108  0.59345480  0.54160503     0.04100
C1373       C  0.11066144  0.51933439  0.57130054     0.38750
C1374       C  0.20494407  0.61033956  0.52526737     0.38740
C1375       C  0.12746834  0.62267825  0.53483986     0.37160
C1376       C  0.18813595  0.50918865  0.56501549     0.37160
N1377       N  0.11576664  0.64601776  0.52943287    -0.37660
N1378       N  0.20014124  0.98627184  0.57147237    -0.37660
N1379       N  0.22420217  0.62855219  0.51581148    -0.37100
N1380       N  0.09211994  0.99997168  0.57954137    -0.37110
C1381       C  0.91499802  0.89212208  0.97353103    -0.03770
C1382       C  0.91611287  0.87915726  0.99983138    -0.00890
C1383       C  0.89265998  0.85459748  0.50619095     0.04100
C1384       C  0.86707214  0.84302101  0.98642780    -0.03770
C1385       C  0.86563710  0.85639650  0.96015238    -0.00880
C1386       C  0.88958605  0.88073832  0.95374599     0.04100
C1387       C  0.94065338  0.89171077  0.52079346     0.38750
C1388       C  0.83897881  0.84573987  0.93972031     0.38740
C1389       C  0.88876990  0.89349223  0.92644582     0.37160
C1390       C  0.89592191  0.84090491  0.53301346     0.37160
N1391       N  0.88812094  0.90359553  0.90465633    -0.37660
N1392       N  0.89863850  0.83010568  0.55443212    -0.37660
N1393       N  0.81777788  0.83729891  0.92336372    -0.37100
N1394       N  0.96007195  0.90180422  0.53752932    -0.37110
C1395       C  0.11559380  0.96017845  0.96016800    -0.03770
C1396       C  0.13802221  0.97385397  0.93975849    -0.00890
C1397       C  0.17667231  0.97961744  0.94455260     0.04100
C1398       C  0.19339167  0.97136828  0.96979557    -0.03770
C1399       C  0.17200508  0.95332847  0.98814784    -0.00880
C1400       C  0.13309313  0.94869849  0.98381192     0.04100
C1401       C  0.12117823  0.98235893  0.91381579     0.38750
C1402       C  0.18948539  0.93964959  0.51188373     0.38740
C1403       C  0.11070834  0.93415264  0.50486827     0.37160
C1404       C  0.19852179  0.99469931  0.92358250     0.37160
N1405       N  0.09287676  0.92276886  0.52176486    -0.37660
N1406       N  0.21573899  0.00665871  0.90668404    -0.37660
N1407       N  0.20321359  0.92857130  0.53079373    -0.37100
N1408       N  0.10770053  0.98905461  0.89314174    -0.37110
C1409       C  0.28162376  0.80342736  0.71586876    -0.03770
C1410       C  0.30742960  0.78003153  0.71104345    -0.00890
C1411       C  0.34620754  0.78624828  0.70832733     0.04100
C1412       C  0.35981987  0.81608963  0.70953193    -0.03770
C1413       C  0.33389498  0.83959030  0.71337676    -0.00880
C1414       C  0.29503166  0.83326527  0.71664863     0.04100
C1415       C  0.29480286  0.74906656  0.71100943     0.38750
C1416       C  0.34702585  0.87033561  0.71395908     0.38740
C1417       C  0.26882413  0.85753542  0.72107663     0.37160
C1418       C  0.37225755  0.76139249  0.70631377     0.37160
N1419       N  0.24792048  0.87689064  0.72466901    -0.37660
N1420       N  0.39291906  0.74154585  0.70484292    -0.37660
N1421       N  0.35748986  0.89487996  0.71447779    -0.37100
N1422       N  0.28496888  0.72435453  0.71100142    -0.37110
C1423       C  0.36417352  0.72550815  0.79988920    -0.03770
C1424       C  0.35228113  0.75507206  0.79457574    -0.00890
C1425       C  0.31368085  0.76189528  0.79365163     0.04100
C1426       C  0.28637053  0.73889629  0.79583662    -0.03770
C1427       C  0.29807514  0.70930622  0.80087049    -0.00880
C1428       C  0.33685790  0.70271262  0.80348165     0.04100
C1429       C  0.37966267  0.77834558  0.78813616     0.38750
C1430       C  0.27011221  0.68576174  0.80378245     0.38740
C1431       C  0.34849974  0.67264238  0.81030484     0.37160
C1432       C  0.30242084  0.79264415  0.78916060     0.37160
N1433       N  0.35781371  0.64867055  0.81586501    -0.37660
N1434       N  0.29405462  0.81733557  0.78591778    -0.37660
N1435       N  0.24776414  0.66699713  0.80618021    -0.37100
N1436       N  0.40138602  0.79682232  0.78274338    -0.37110
C1437       C  0.61056502  0.59322721  0.77466050    -0.03770
C1438       C  0.57474976  0.58766076  0.78612573    -0.00890
C1439       C  0.55041025  0.61155998  0.79228991     0.04100
C1440       C  0.56169515  0.64141973  0.78704586    -0.03770
C1441       C  0.59781854  0.64694616  0.77570040    -0.00880
C1442       C  0.62189048  0.62293482  0.76928845     0.04100
C1443       C  0.56205112  0.55722974  0.79051519     0.38750
C1444       C  0.61012878  0.67725078  0.76984726     0.38740
C1445       C  0.65851420  0.62887329  0.75718505     0.37160
C1446       C  0.51404887  0.60522826  0.80467675     0.37160
N1447       N  0.68757244  0.63366982  0.74734665    -0.37660
N1448       N  0.48506070  0.60013441  0.81452584    -0.37660
N1449       N  0.62018517  0.70136991  0.76521687    -0.37100
N1450       N  0.55120757  0.53311700  0.79397708    -0.37110
C1451       C  0.61022390  0.94775947  0.73122763    -0.03770
C1452       C  0.61514433  0.93023946  0.70733692    -0.00890
C1453       C  0.58991408  0.90651451  0.70127806     0.04100
C1454       C  0.55919884  0.90017915  0.71885926    -0.03770
C1455       C  0.55434468  0.91756504  0.74274101    -0.00880
C1456       C  0.57988866  0.94086568  0.74908439     0.04100
C1457       C  0.64717157  0.93558816  0.68950325     0.38750
C1458       C  0.52374754  0.91085135  0.76154117     0.38740
C1459       C  0.57475657  0.95734845  0.77439016     0.37160
C1460       C  0.59535776  0.88898210  0.67658450     0.37160
N1461       N  0.57065654  0.96981537  0.79492653    -0.37660
N1462       N  0.59984208  0.87500624  0.65690858    -0.37660
N1463       N  0.49937144  0.90558969  0.77653720    -0.37100
N1464       N  0.67276710  0.93973431  0.67530782    -0.37110
C1465       C  0.05940943  0.88648168  0.79552048    -0.03770
C1466       C  0.04454069  0.85720534  0.79132018    -0.00890
C1467       C  0.06886964  0.83296081  0.78630764     0.04100
C1468       C  0.10810923  0.83747956  0.78552363    -0.03770
C1469       C  0.12332553  0.86595458  0.79105438    -0.00880
C1470       C  0.09930039  0.89038572  0.79604173     0.04100
C1471       C  0.00425007  0.85148729  0.79245438     0.38750
C1472       C  0.16399384  0.87011594  0.79118693     0.38740
C1473       C  0.11629136  0.91949458  0.80093841     0.37160
C1474       C  0.05351897  0.80318082  0.78202730     0.37160
N1475       N  0.13022490  0.94256412  0.80490476    -0.37660
N1476       N  0.04116775  0.77942693  0.77887031    -0.37660
N1477       N  0.19640666  0.87326204  0.79133590    -0.37100
N1478       N  0.97214737  0.84678132  0.79330330    -0.37110
C1479       C  0.86202620  0.97310290  0.79994436    -0.03770
C1480       C  0.84877454  0.00292085  0.80139208    -0.00890
C1481       C  0.80999487  0.50895030  0.79927692     0.04100
C1482       C  0.78414969  0.98569625  0.79335122    -0.03770
C1483       C  0.79705689  0.95593612  0.79214479    -0.00880
C1484       C  0.83570745  0.94956265  0.79599839     0.04100
C1485       C  0.87504378  0.52796092  0.80282074     0.38750
C1486       C  0.77040781  0.93183567  0.78707875     0.38740
C1487       C  0.84814850  0.91876893  0.79596513     0.37160
C1488       C  0.79716160  0.53958221  0.80172038     0.37160
N1489       N  0.85804612  0.89417902  0.79599182    -0.37660
N1490       N  0.78715179  0.56400341  0.80406646    -0.37660
N1491       N  0.74910256  0.91262017  0.78307105    -0.37100
N1492       N  0.89585303  0.54797896  0.80364711    -0.37110
C1493       C  0.06419931  0.64645110  0.72041956    -0.03770
C1494       C  0.10247762  0.64157954  0.72742850    -0.00890
C1495       C  0.12644771  0.66601515  0.73353196     0.04100
C1496       C  0.11266740  0.69546480  0.73225819    -0.03770
C1497       C  0.07520523  0.70053027  0.72395742    -0.00880
C1498       C  0.05093465  0.67619024  0.71831553     0.04100
C1499       C  0.11728612  0.61150138  0.72911257     0.38750
C1500       C  0.06136583  0.73085784  0.72163714     0.38740
C1501       C  0.01248093  0.68202246  0.70974134     0.37160
C1502       C  0.16569370  0.66094818  0.74053948     0.37160
N1503       N  0.98180465  0.68670388  0.70297133    -0.37660
N1504       N  0.19703777  0.65704388  0.74599525    -0.37660
N1505       N  0.05029315  0.75501107  0.71955920    -0.37100
N1506       N  0.12938944  0.58758978  0.73037912    -0.37110
C1507       C  0.86300981  0.57333340  0.70771687    -0.03770
C1508       C  0.84262967  0.55405348  0.68994745    -0.00890
C1509       C  0.80371621  0.54883287  0.69402018     0.04100
C1510       C  0.78445182  0.56342112  0.71559134    -0.03770
C1511       C  0.80386099  0.58614685  0.73045724    -0.00880
C1512       C  0.84305669  0.59037521  0.72716674     0.04100
C1513       C  0.86171278  0.53927956  0.66742653     0.38750
C1514       C  0.78395732  0.60517559  0.74961026     0.38740
C1515       C  0.86299926  0.61091371  0.74521324     0.37160
C1516       C  0.78432613  0.52749496  0.67648525     0.37160
N1517       N  0.87883866  0.62718670  0.75972261    -0.37660
N1518       N  0.76911948  0.51045282  0.66236470    -0.37660
N1519       N  0.76862893  0.62053725  0.76501945    -0.37100
N1520       N  0.87692952  0.52754849  0.64946963    -0.37110
loop_ 
_geom_bond_atom_site_label_1 
_geom_bond_atom_site_label_2 
_geom_bond_distance 
_geom_bond_site_symmetry_2 
_ccdc_geom_bond_type 
O1            C4   1.269       .  A
O1           Cd6   2.494       .  S
C2           O11   1.264   1_455  A
C2            O7   1.269       .  A
C2          C777   1.466       .  S
O3            C9   1.269       .  A
O3           Cd6   2.440   1_455  S
C4           O12   1.262       .  A
C4           C93   1.462       .  S
C5           O10   1.268       .  A
C5            O8   1.262       .  A
C5          C367   1.492       .  S
Cd6          O13   2.461   1_655  S
Cd6          O12   2.417       .  S
Cd6          O11   2.451       .  S
Cd6           O7   2.478   1_655  S
Cd6          O10   2.488       .  S
Cd6           O8   2.428       .  S
C9           O13   1.269       .  A
C9          C353   1.493       .  S
O14          C17   1.268       .  A
O14         Cd19   2.478   1_455  S
C15          O24   1.265       .  A
C15          O20   1.270       .  A
C15          C80   1.462       .  S
O16          C22   1.270       .  A
O16         Cd19   2.509       .  S
C17          O25   1.263   1_455  A
C17         C762   1.466       .  S
C18          O23   1.270   1_455  A
C18          O21   1.267       .  A
C18         C325   1.504       .  S
Cd19         O26   2.401       .  S
Cd19         O25   2.456       .  S
Cd19         O24   2.417       .  S
Cd19         O20   2.477       .  S
Cd19         O23   2.456       .  S
Cd19         O21   2.450   1_655  S
C22          O26   1.260       .  A
C22         C339   1.493       .  S
O27         C790   1.272   1_545  A
O27         Cd32   2.466       .  S
C28          O37   1.266       .  A
C28          O33   1.270       .  A
C28         C297   1.484       .  S
O29          C35   1.274       .  A
O29         Cd32   2.494       .  S
C30          O38   1.265       .  A
C30         O787   1.272       .  A
C30         C342   1.484       .  S
C31          O36   1.272       .  A
C31          O34   1.266       .  A
C31         C311   1.496       .  S
Cd32         O39   2.400       .  S
Cd32         O37   2.445       .  S
Cd32         O33   2.477       .  S
Cd32        O798   2.423   1_545  S
Cd32        O796   2.483   1_545  S
Cd32        O794   2.428   1_545  S
O34        Cd792   2.428       .  S
C35          O39   1.263       .  A
C35         C370   1.502       .  S
O36        Cd792   2.483       .  S
O38        Cd792   2.423       .  S
O40          C43   1.269       .  A
O40         Cd45   2.481       .  S
C41          O50   1.265       .  A
C41          O46   1.269       .  A
C41         C119   1.464       .  S
O42          C48   1.270       .  A
O42         Cd45   2.507       .  S
C43          O51   1.263       .  A
C43          C56   1.467       .  S
C44          O49   1.270       .  A
C44          O47   1.269       .  A
C44         C300   1.492       .  S
Cd45         O52   2.392       .  S
Cd45         O51   2.453       .  S
Cd45         O50   2.432       .  S
Cd45         O46   2.479       .  S
Cd45         O49   2.447       .  S
Cd45         O47   2.451       .  S
C48          O52   1.261       .  A
C48         C283   1.486       .  S
O53          C56   1.268       .  A
O53         Cd58   2.483       .  S
C54          O63   1.265       .  A
C54          O59   1.269       .  A
C54         C132   1.463       .  S
O55          C61   1.270       .  A
O55         Cd58   2.514       .  S
C56          O64   1.263       .  A
C57          O62   1.271       .  A
C57          O60   1.269       .  A
C57         C314   1.491       .  S
Cd58         O65   2.405       .  S
Cd58         O64   2.459       .  S
Cd58         O63   2.429       .  S
Cd58         O59   2.478       .  S
Cd58         O62   2.451       .  S
Cd58         O60   2.454       .  S
C61          O65   1.260       .  A
C61         C272   1.492       .  S
O66          C69   1.269       .  A
O66         Cd71   2.467       .  S
C67          O76   1.267       .  A
C67          O72   1.268       .  A
C67         C356   1.479       .  S
O68          C74   1.269       .  A
O68         Cd71   2.464       .  S
C69          O77   1.262       .  A
C69         C269   1.488       .  S
C70          O75   1.268       .  A
C70          O73   1.265       .  A
C70         C328   1.477       .  S
Cd71         O78   2.434       .  S
Cd71         O77   2.430       .  S
Cd71         O76   2.438       .  S
Cd71         O72   2.462       .  S
Cd71         O75   2.474       .  S
Cd71         O73   2.432       .  S
C74          O78   1.264       .  A
C74         C286   1.481       .  S
O79         C842   1.268       .  A
O79        Cd844   2.483   1_545  S
C80          O89   1.263       .  A
C80          O85   1.267       .  A
O81          C87   1.267       .  A
O81         Cd84   2.484   1_455  S
C82          O90   1.262       .  A
C82         O839   1.268       .  A
C82        C1235   1.466       .  S
C83          O88   1.268       .  A
C83          O86   1.269       .  A
C83         C241   1.485       .  S
Cd84         O91   2.429   1_655  S
Cd84         O90   2.455       .  S
Cd84         O89   2.427       .  S
Cd84         O85   2.489       .  S
Cd84         O88   2.433       .  S
Cd84         O86   2.462       .  S
Cd84        O839   2.483       .  S
C87          O91   1.261       .  A
C87         C255   1.486       .  S
O92          C95   1.267       .  A
O92         Cd97   2.481       .  S
C93         O102   1.266       .  A
C93          O98   1.270       .  A
O94         C100   1.269       .  A
O94         Cd97   2.511   1_455  S
C95         O103   1.262       .  A
C95        C1222   1.466   1_554  S
C96         O101   1.270       .  A
C96          O99   1.267       .  A
C96         C216   1.500       .  S
Cd97        O104   2.409   1_655  S
Cd97        O103   2.459       .  S
Cd97        O102   2.414       .  S
Cd97         O98   2.482       .  S
Cd97        O101   2.461       .  S
Cd97         O99   2.449       .  S
C100        O104   1.259       .  A
C100        C227   1.497       .  S
O105        C108   1.270       .  A
O105       Cd870   2.462       .  S
C106        O115   1.265       .  A
C106        O111   1.272       .  A
C106        C230   1.487       .  S
O107        C113   1.272       .  A
O107       Cd490   2.487       .  S
C108        O496   1.267   1_554  A
C108        C202   1.496       .  S
C109        O874   1.275       .  A
C109        O492   1.263       .  A
C109        C258   1.502       .  S
Cd110       O117   2.408       .  S
Cd110       O115   2.417       .  S
Cd110       O111   2.463       .  S
Cd110       O865   2.462   1_545  S
Cd110       O487   2.487   1_554  S
Cd110      O1256   2.432   1_544  S
Cd110       O494   2.491   1_554  S
Cd110       O872   2.384   1_545  S
O112        C489   1.263   1_554  A
O112       Cd870   2.384       .  S
C113        O497   1.265       .  A
C113        C188   1.507       .  S
O114        C869   1.275   1_545  A
O114       Cd490   2.491       .  S
O116        C488   1.267       .  A
O116      Cd1250   2.432       .  S
O117        C493   1.265   1_554  A
O118        C121   1.268       .  A
O118       Cd123   2.484       .  S
C119        O128   1.265       .  A
C119        O124   1.269       .  A
O120        C126   1.269       .  A
O120       Cd123   2.511       .  S
C121        O129   1.262       .  A
C121        C514   1.466       .  S
C122        O127   1.269       .  A
C122        O125   1.268       .  A
C122        C185   1.481       .  S
Cd123       O130   2.404       .  S
Cd123       O129   2.460       .  S
Cd123       O128   2.433       .  S
Cd123       O124   2.475       .  S
Cd123       O127   2.452       .  S
Cd123       O125   2.451       .  S
C126        O130   1.260       .  A
C126        C171   1.492       .  S
O131        C134   1.269       .  A
O131       Cd136   2.482       .  S
C132        O141   1.265       .  A
C132        O137   1.269       .  A
O133        C139   1.270       .  A
O133       Cd136   2.505       .  S
C134        O142   1.263       .  A
C134        C501   1.466   1_554  S
C135        O140   1.270       .  A
C135        O138   1.269       .  A
C135        C199   1.487       .  S
Cd136       O143   2.396       .  S
Cd136       O142   2.452       .  S
Cd136       O141   2.429       .  S
Cd136       O137   2.478       .  S
Cd136       O140   2.448       .  S
Cd136       O138   2.452       .  S
C139        O143   1.260       .  A
C139        C157   1.489       .  S
O144        C147   1.271       .  A
O144       Cd529   2.464       .  S
C145        O150   1.270       .  A
C145        O534   1.266       .  A
C145        C244   1.494       .  S
O146        C152   1.270       .  A
O146       Cd149   2.466       .  S
C147        O535   1.263       .  A
C147        C174   1.485       .  S
C148        O153   1.269       .  A
C148        O531   1.266       .  A
C148        C213   1.477       .  S
Cd149       O156   2.423       .  S
Cd149       O155   2.420   1_554  S
Cd149       O154   2.426       .  S
Cd149       O153   2.473       .  S
Cd149       O524   2.464   1_554  S
Cd149       O530   2.466   1_554  S
Cd149       O531   2.429       .  S
O150       Cd529   2.466       .  S
O151        C528   1.266       .  A
O151       Cd529   2.429       .  S
C152        O156   1.263       .  A
C152        C160   1.482       .  S
O154        C525   1.266   1_554  A
O155        C527   1.263       .  A
C157        C158   1.414       .  A
C157        C162   1.417       .  A
C158        C159   1.414       .  A
C158        C163   1.450       .  S
C159        C160   1.413       .  A
C159        C166   1.450       .  S
C160        C161   1.413       .  A
C161        C162   1.407       .  A
C161        C164   1.453       .  S
C162        C165   1.454       .  S
C163        N170   1.157       .  T
C164        N169   1.157       .  T
C165        N167   1.158       .  T
C166        N168   1.157       .  T
C171        C172   1.419       .  A
C171        C176   1.415       .  A
C172        C173   1.408       .  A
C172        C177   1.454       .  S
C173        C174   1.414       .  A
C173        C180   1.454       .  S
C174        C175   1.414       .  A
C175        C176   1.414       .  A
C175        C178   1.450       .  S
C176        C179   1.450       .  S
C177        N184   1.158       .  T
C178        N183   1.157       .  T
C179        N181   1.157       .  T
C180        N182   1.157       .  T
C185        C186   1.406       .  A
C185        C190   1.409       .  A
C186        C567   1.410       .  A
C186        C571   1.454       .  S
C187        C566   1.410   1_554  A
C187        C568   1.428   1_554  A
C187        C194   1.453       .  S
C188        C189   1.424       .  A
C188        C567   1.428       .  A
C189        C190   1.415       .  A
C189        C192   1.451       .  S
C190        C193   1.452       .  S
C191        C566   1.454   1_554  S
C191        N198   1.157       .  T
C192        N197   1.158       .  T
C193        N195   1.157       .  T
C194        N196   1.158       .  T
C199        C200   1.413       .  A
C199        C204   1.411       .  A
C200        C201   1.413       .  A
C200        C205   1.452       .  S
C201        C202   1.419       .  A
C201        C208   1.452       .  S
C202        C203   1.420       .  A
C203        C204   1.411       .  A
C203        C586   1.452   1_554  S
C204        C587   1.453   1_554  S
C205        N212   1.157       .  T
C206        C583   1.452       .  S
C206        N211   1.158       .  T
C207        C584   1.453       .  S
C207        N209   1.157       .  T
C208        N210   1.158       .  T
C213        C214   1.407       .  A
C213        C218   1.407       .  A
C214        C215   1.411       .  A
C214        C219   1.453       .  S
C215        C216   1.422       .  A
C215        C222   1.451       .  S
C216        C217   1.422       .  A
C217        C218   1.413       .  A
C217        C220   1.451       .  S
C218        C221   1.451       .  S
C219        N226   1.157       .  T
C220        N225   1.157   1_655  T
C221        N223   1.157       .  T
C222        N224   1.158       .  T
C227        C228   1.423       .  A
C227        C232   1.416       .  A
C228        C229   1.409       .  A
C228        C233   1.454       .  S
C229        C230   1.412       .  A
C229        C236   1.453       .  S
C230        C231   1.413       .  A
C231        C232   1.414       .  A
C231        C234   1.451       .  S
C232        C235   1.450       .  S
C233       N1000   1.158   1_545  T
C234        N239   1.157       .  T
C235        N237   1.157       .  T
C236        N998   1.157   1_545  T
N238        C996   1.157       .  T
N240        C993   1.158       .  T
C241        C242   1.411       .  A
C241        C246   1.413       .  A
C242        C623   1.410       .  A
C242        C627   1.453       .  S
C243        C622   1.410   1_554  A
C243        C624   1.419   1_554  A
C243        C250   1.452       .  S
C244        C245   1.418       .  A
C244        C623   1.419       .  A
C245        C246   1.413       .  A
C245        C248   1.452       .  S
C246        C249   1.452       .  S
C247        C622   1.453   1_554  S
C247        N254   1.157       .  T
C248        N253   1.158       .  T
C249        N251   1.157       .  T
C250        N252   1.157       .  T
C255        C256   1.414       .  A
C255        C260   1.410       .  A
C256        C257   1.412       .  A
C256        C261   1.453       .  S
C257        C258   1.418       .  A
C257        C264   1.450       .  S
C258        C259   1.424       .  A
C259        C260   1.410       .  A
C259        C642   1.452       .  S
C260        C643   1.453       .  S
C261        N268   1.157       .  T
C262        C639   1.452   1_554  S
C262        N267   1.157       .  T
C263        C640   1.453   1_554  S
C263        N265   1.158       .  T
C264        N266   1.157       .  T
C269        C270   1.415       .  A
C269        C274   1.415       .  A
C270        C271   1.408       .  A
C270        C275   1.454       .  S
C271        C272   1.418       .  A
C271        C278   1.454       .  S
C272        C273   1.414       .  A
C273        C274   1.415       .  A
C273        C276   1.450       .  S
C274        C277   1.451       .  S
C275        N282   1.157       .  T
C276        N281   1.157       .  T
C277        N279   1.157       .  T
C278        N280   1.158       .  T
C283        C284   1.416       .  A
C283        C288   1.414       .  A
C284        C285   1.406       .  A
C284        C289   1.455       .  S
C285        C286   1.413       .  A
C285        C292   1.452       .  S
C286        C287   1.412       .  A
C287        C288   1.415       .  A
C287        C290   1.450       .  S
C288        C291   1.450       .  S
C289        N296   1.158       .  T
C290        N295   1.157       .  T
C291        N293   1.157       .  T
C292        N294   1.157       .  T
C297        C298   1.410       .  A
C297        C302   1.412       .  A
C298        C299   1.411       .  A
C298        C303   1.448       .  S
C299        C300   1.416       .  A
C299        C306   1.452       .  S
C300        C301   1.417       .  A
C301        C302   1.412       .  A
C301        C304   1.451       .  S
C302        C305   1.451       .  S
C303        N310   1.156       .  T
C304        N309   1.157       .  T
C305        N307   1.157       .  T
C306        N308   1.157       .  T
C311        C312   1.416       .  A
C311        C316   1.419       .  A
C312        C313   1.415       .  A
C312        C317   1.452       .  S
C313        C314   1.416       .  A
C313        C320   1.452       .  S
C314        C315   1.412       .  A
C315        C316   1.411       .  A
C315        C318   1.453       .  S
C316        C319   1.451       .  S
C317        N324   1.157       .  T
C318        N323   1.157       .  T
C319        N321   1.157       .  T
C320        N322   1.157       .  T
C325        C326   1.424       .  A
C325        C330   1.425       .  A
C326        C327   1.412       .  A
C326        C331   1.451       .  S
C327        C328   1.406       .  A
C327        C334   1.451       .  S
C328        C329   1.406       .  A
C329        C330   1.412       .  A
C329        C332   1.453       .  S
C330        C333   1.451       .  S
C331        N338   1.158   1_455  T
C332        N337   1.157       .  T
C333        N335   1.158       .  T
C334        N336   1.157       .  T
C339        C340   1.420       .  A
C339        C344   1.416       .  A
C340       C1101   1.407       .  A
C340       C1105   1.454       .  S
C341       C1100   1.407       .  A
C341       C1102   1.412   1_545  A
C341        C348   1.452       .  S
C342        C343   1.412       .  A
C342       C1101   1.412       .  A
C343        C344   1.415       .  A
C343        C346   1.450       .  S
C344        C347   1.450       .  S
C345       C1100   1.454       .  S
C345        N352   1.158       .  T
C346        N351   1.157       .  T
C347        N349   1.157       .  T
C348        N350   1.157       .  T
C353        C354   1.418       .  A
C353        C358   1.419       .  A
C354        C355   1.412       .  A
C354        C359   1.451       .  S
C355        C356   1.410       .  A
C355        C362   1.452       .  S
C356        C357   1.409       .  A
C357        C358   1.410       .  A
C357        C360   1.451       .  S
C358        C361   1.452       .  S
C359        N366   1.157       .  T
C360        N365   1.157       .  T
C361        N363   1.157   1_455  T
C362        N364   1.157       .  T
C367        C368   1.417       .  A
C367        C372   1.411       .  A
C368        C369   1.413       .  A
C368        C373   1.453       .  S
C369        C370   1.417       .  A
C369        C376   1.451       .  S
C370        C371   1.422       .  A
C371        C372   1.411       .  A
C371        C374   1.451       .  S
C372        C375   1.452       .  S
C373        N380   1.158       .  T
C374        N379   1.157       .  T
C375        N377   1.157       .  T
C376        N378   1.158       .  T
O381        C384   1.269       .  A
O381       Cd386   2.494       .  S
C382        O391   1.264   1_455  A
C382        O387   1.269       .  A
C382       C1157   1.466       .  S
O383        C389   1.269       .  A
O383       Cd386   2.440   1_455  S
C384        O392   1.262       .  A
C384        C473   1.462       .  S
C385        O390   1.268       .  A
C385        O388   1.262       .  A
C385        C747   1.492       .  S
Cd386       O393   2.461   1_655  S
Cd386       O392   2.417       .  S
Cd386       O391   2.451       .  S
Cd386       O387   2.478   1_655  S
Cd386       O390   2.488       .  S
Cd386       O388   2.428       .  S
C389        O393   1.269       .  A
C389        C733   1.493       .  S
O394        C397   1.268       .  A
O394       Cd399   2.478   1_455  S
C395        O404   1.265       .  A
C395        O400   1.270       .  A
C395        C460   1.462       .  S
O396        C402   1.270       .  A
O396       Cd399   2.509       .  S
C397        O405   1.263   1_455  A
C397       C1142   1.466       .  S
C398        O403   1.270   1_455  A
C398        O401   1.267       .  A
C398        C705   1.504       .  S
Cd399       O406   2.401       .  S
Cd399       O405   2.456       .  S
Cd399       O404   2.417       .  S
Cd399       O400   2.477       .  S
Cd399       O403   2.456       .  S
Cd399       O401   2.450   1_655  S
C402        O406   1.260       .  A
C402        C719   1.493       .  S
O407       C1170   1.272   1_545  A
O407       Cd412   2.466       .  S
C408        O417   1.266       .  A
C408        O413   1.270       .  A
C408        C677   1.484       .  S
O409        C415   1.274       .  A
O409       Cd412   2.494       .  S
C410       O1167   1.272       .  A
C410        O418   1.265       .  A
C410        C722   1.484       .  S
C411        O416   1.272       .  A
C411        O414   1.266       .  A
C411        C691   1.496       .  S
Cd412       O419   2.400       .  S
Cd412      O1178   2.423   1_545  S
Cd412       O417   2.445       .  S
Cd412       O413   2.477       .  S
Cd412      O1176   2.483   1_545  S
Cd412      O1174   2.428   1_545  S
O414      Cd1172   2.428       .  S
C415        O419   1.263       .  A
C415        C750   1.502       .  S
O416      Cd1172   2.483       .  S
O418      Cd1172   2.423       .  S
O420        C423   1.269       .  A
O420       Cd425   2.481       .  S
C421        O430   1.265       .  A
C421        O426   1.269       .  A
C421        C499   1.464       .  S
O422        C428   1.270       .  A
O422       Cd425   2.507       .  S
C423        O431   1.263       .  A
C423        C436   1.467       .  S
C424        O429   1.270       .  A
C424        O427   1.269       .  A
C424        C680   1.492       .  S
Cd425       O432   2.392       .  S
Cd425       O431   2.453       .  S
Cd425       O430   2.432       .  S
Cd425       O426   2.479       .  S
Cd425       O429   2.447       .  S
Cd425       O427   2.451       .  S
C428        O432   1.261       .  A
C428        C663   1.486       .  S
O433        C436   1.268       .  A
O433       Cd438   2.483       .  S
C434        O443   1.265       .  A
C434        O439   1.269       .  A
C434        C512   1.463       .  S
O435        C441   1.270       .  A
O435       Cd438   2.514       .  S
C436        O444   1.263       .  A
C437        O442   1.271       .  A
C437        O440   1.269       .  A
C437        C694   1.491       .  S
Cd438       O445   2.405       .  S
Cd438       O444   2.459       .  S
Cd438       O443   2.429       .  S
Cd438       O439   2.478       .  S
Cd438       O442   2.451       .  S
Cd438       O440   2.454       .  S
C441        O445   1.260       .  A
C441        C652   1.492       .  S
O446        C449   1.269       .  A
O446       Cd451   2.467       .  S
C447        O456   1.267       .  A
C447        O452   1.268       .  A
C447        C736   1.479       .  S
O448        C454   1.269       .  A
O448       Cd451   2.464       .  S
C449        O457   1.262       .  A
C449        C649   1.488       .  S
C450        O455   1.268       .  A
C450        O453   1.265       .  A
C450        C708   1.477       .  S
Cd451       O458   2.434       .  S
Cd451       O457   2.430       .  S
Cd451       O456   2.438       .  S
Cd451       O452   2.462       .  S
Cd451       O455   2.474       .  S
Cd451       O453   2.432       .  S
C454        O458   1.264       .  A
C454        C666   1.481       .  S
O459       C1222   1.268       .  A
O459      Cd1224   2.483   1_545  S
C460        O469   1.263       .  A
C460        O465   1.267       .  A
O461        C467   1.267       .  A
O461       Cd464   2.484   1_455  S
C462       O1219   1.268       .  A
C462        O470   1.262   1_556  A
C462        C855   1.466   1_556  S
C463        O468   1.268       .  A
C463        O466   1.269       .  A
C463        C621   1.485       .  S
Cd464      O1219   2.483       .  S
Cd464       O471   2.429   1_655  S
Cd464       O470   2.455   1_556  S
Cd464       O469   2.427       .  S
Cd464       O465   2.489       .  S
Cd464       O468   2.433       .  S
Cd464       O466   2.462       .  S
C467        O471   1.261       .  A
C467        C635   1.486       .  S
O472        C475   1.267       .  A
O472       Cd477   2.481       .  S
C473        O482   1.266       .  A
C473        O478   1.270       .  A
O474        C480   1.269       .  A
O474       Cd477   2.511   1_455  S
C475        O483   1.262       .  A
C475        C842   1.466       .  S
C476        O481   1.270       .  A
C476        O479   1.267       .  A
C476        C596   1.500       .  S
Cd477       O484   2.409   1_655  S
Cd477       O483   2.459       .  S
Cd477       O482   2.414       .  S
Cd477       O478   2.482       .  S
Cd477       O481   2.461       .  S
Cd477       O479   2.449       .  S
C480        O484   1.259       .  A
C480        C607   1.497       .  S
O485        C488   1.270       .  A
O485      Cd1250   2.462       .  S
C486        O495   1.265       .  A
C486        O491   1.272       .  A
C486        C610   1.487       .  S
O487        C493   1.272       .  A
C488        C582   1.496       .  S
C489       O1254   1.275       .  A
C489        C638   1.502       .  S
Cd490      O1245   2.462   1_545  S
Cd490       O497   2.408       .  S
Cd490       O876   2.432   1_545  S
Cd490       O495   2.417       .  S
Cd490       O491   2.463       .  S
Cd490      O1252   2.384   1_545  S
O492      Cd1250   2.384       .  S
C493        C568   1.507       .  S
O494       C1249   1.275   1_545  A
O496       Cd870   2.432   1_556  S
O498        C501   1.268       .  A
O498       Cd503   2.484       .  S
C499        O508   1.265       .  A
C499        O504   1.269       .  A
O500        C506   1.269       .  A
O500       Cd503   2.511       .  S
C501        O509   1.262       .  A
C502        O507   1.269       .  A
C502        O505   1.268       .  A
C502        C565   1.481       .  S
Cd503       O510   2.404       .  S
Cd503       O509   2.460       .  S
Cd503       O508   2.433       .  S
Cd503       O504   2.475       .  S
Cd503       O507   2.452       .  S
Cd503       O505   2.451       .  S
C506        O510   1.260       .  A
C506        C551   1.492       .  S
O511        C514   1.269       .  A
O511       Cd516   2.482       .  S
C512        O521   1.265       .  A
C512        O517   1.269       .  A
O513        C519   1.270       .  A
O513       Cd516   2.505       .  S
C514        O522   1.263       .  A
C515        O520   1.270       .  A
C515        O518   1.269       .  A
C515        C579   1.487       .  S
Cd516       O523   2.396       .  S
Cd516       O522   2.452       .  S
Cd516       O521   2.429       .  S
Cd516       O517   2.478       .  S
Cd516       O520   2.448       .  S
Cd516       O518   2.452       .  S
C519        O523   1.260       .  A
C519        C537   1.489       .  S
O524        C527   1.271       .  A
C525        O530   1.270       .  A
C525        C624   1.494       .  S
O526        C532   1.270       .  A
O526       Cd529   2.466       .  S
C527        C554   1.485       .  S
C528        O533   1.269       .  A
C528        C593   1.477       .  S
Cd529       O536   2.423       .  S
Cd529       O535   2.420       .  S
Cd529       O534   2.426       .  S
Cd529       O533   2.473       .  S
C532        O536   1.263       .  A
C532        C540   1.482       .  S
C537        C538   1.414       .  A
C537        C542   1.417       .  A
C538        C539   1.414       .  A
C538        C543   1.450       .  S
C539        C540   1.413       .  A
C539        C546   1.450       .  S
C540        C541   1.413       .  A
C541        C542   1.407       .  A
C541        C544   1.453       .  S
C542        C545   1.454       .  S
C543        N550   1.157       .  T
C544        N549   1.157       .  T
C545        N547   1.158       .  T
C546        N548   1.157       .  T
C551        C552   1.419       .  A
C551        C556   1.415       .  A
C552        C553   1.408       .  A
C552        C557   1.454       .  S
C553        C554   1.414       .  A
C553        C560   1.454       .  S
C554        C555   1.414       .  A
C555        C556   1.414       .  A
C555        C558   1.450       .  S
C556        C559   1.450       .  S
C557        N564   1.158       .  T
C558        N563   1.157       .  T
C559        N561   1.157       .  T
C560        N562   1.157       .  T
C565        C566   1.406       .  A
C565        C570   1.409       .  A
C567        C574   1.453       .  S
C568        C569   1.424       .  A
C569        C570   1.415       .  A
C569        C572   1.451       .  S
C570        C573   1.452       .  S
C571        N578   1.157       .  T
C572        N577   1.158       .  T
C573        N575   1.157       .  T
C574        N576   1.158       .  T
C579        C580   1.413       .  A
C579        C584   1.411       .  A
C580        C581   1.413       .  A
C580        C585   1.452       .  S
C581        C582   1.419       .  A
C581        C588   1.452       .  S
C582        C583   1.420       .  A
C583        C584   1.411       .  A
C585        N592   1.157       .  T
C586        N591   1.158       .  T
C587        N589   1.157       .  T
C588        N590   1.158       .  T
C593        C594   1.407       .  A
C593        C598   1.407       .  A
C594        C595   1.411       .  A
C594        C599   1.453       .  S
C595        C596   1.422       .  A
C595        C602   1.451       .  S
C596        C597   1.422       .  A
C597        C598   1.413       .  A
C597        C600   1.451       .  S
C598        C601   1.451       .  S
C599        N606   1.157       .  T
C600        N605   1.157   1_655  T
C601        N603   1.157       .  T
C602        N604   1.158       .  T
C607        C608   1.423       .  A
C607        C612   1.416       .  A
C608        C609   1.409       .  A
C608        C613   1.454       .  S
C609        C610   1.412       .  A
C609        C616   1.453       .  S
C610        C611   1.413       .  A
C611        C612   1.414       .  A
C611        C614   1.451       .  S
C612        C615   1.450       .  S
C613       N1380   1.158   1_545  T
C614        N619   1.157       .  T
C615        N617   1.157       .  T
C616       N1378   1.157   1_545  T
N618       C1376   1.157       .  T
N620       C1373   1.158       .  T
C621        C622   1.411       .  A
C621        C626   1.413       .  A
C623        C630   1.452       .  S
C624        C625   1.418       .  A
C625        C626   1.413       .  A
C625        C628   1.452       .  S
C626        C629   1.452       .  S
C627        N634   1.157       .  T
C628        N633   1.158       .  T
C629        N631   1.157       .  T
C630        N632   1.157       .  T
C635        C636   1.414       .  A
C635        C640   1.410       .  A
C636        C637   1.412       .  A
C636        C641   1.453       .  S
C637        C638   1.418       .  A
C637        C644   1.450       .  S
C638        C639   1.424       .  A
C639        C640   1.410       .  A
C641        N648   1.157       .  T
C642        N647   1.157       .  T
C643        N645   1.158       .  T
C644        N646   1.157       .  T
C649        C650   1.415       .  A
C649        C654   1.415       .  A
C650        C651   1.408       .  A
C650        C655   1.454       .  S
C651        C652   1.418       .  A
C651        C658   1.454       .  S
C652        C653   1.414       .  A
C653        C654   1.415       .  A
C653        C656   1.450       .  S
C654        C657   1.451       .  S
C655        N662   1.157       .  T
C656        N661   1.157       .  T
C657        N659   1.157       .  T
C658        N660   1.158       .  T
C663        C664   1.416       .  A
C663        C668   1.414       .  A
C664        C665   1.406       .  A
C664        C669   1.455       .  S
C665        C666   1.413       .  A
C665        C672   1.452       .  S
C666        C667   1.412       .  A
C667        C668   1.415       .  A
C667        C670   1.450       .  S
C668        C671   1.450       .  S
C669        N676   1.158       .  T
C670        N675   1.157       .  T
C671        N673   1.157       .  T
C672        N674   1.157       .  T
C677        C678   1.410       .  A
C677        C682   1.412       .  A
C678        C679   1.411       .  A
C678        C683   1.448       .  S
C679        C680   1.416       .  A
C679        C686   1.452       .  S
C680        C681   1.417       .  A
C681        C682   1.412       .  A
C681        C684   1.451       .  S
C682        C685   1.451       .  S
C683        N690   1.156       .  T
C684        N689   1.157       .  T
C685        N687   1.157       .  T
C686        N688   1.157       .  T
C691        C692   1.416       .  A
C691        C696   1.419       .  A
C692        C693   1.415       .  A
C692        C697   1.452       .  S
C693        C694   1.416       .  A
C693        C700   1.452       .  S
C694        C695   1.412       .  A
C695        C696   1.411       .  A
C695        C698   1.453       .  S
C696        C699   1.451       .  S
C697        N704   1.157       .  T
C698        N703   1.157       .  T
C699        N701   1.157       .  T
C700        N702   1.157       .  T
C705        C706   1.424       .  A
C705        C710   1.425       .  A
C706        C707   1.412       .  A
C706        C711   1.451       .  S
C707        C708   1.406       .  A
C707        C714   1.451       .  S
C708        C709   1.406       .  A
C709        C710   1.412       .  A
C709        C712   1.453       .  S
C710        C713   1.451       .  S
C711        N718   1.158   1_455  T
C712        N717   1.157       .  T
C713        N715   1.158       .  T
C714        N716   1.157       .  T
C719        C720   1.420       .  A
C719        C724   1.416       .  A
C720       C1481   1.407       .  A
C720       C1485   1.454       .  S
C721       C1480   1.407       .  A
C721       C1482   1.412   1_545  A
C721        C728   1.452       .  S
C722       C1481   1.412       .  A
C722        C723   1.412       .  A
C723        C724   1.415       .  A
C723        C726   1.450       .  S
C724        C727   1.450       .  S
C725       C1480   1.454       .  S
C725        N732   1.158       .  T
C726        N731   1.157       .  T
C727        N729   1.157       .  T
C728        N730   1.157       .  T
C733        C734   1.418       .  A
C733        C738   1.419       .  A
C734        C735   1.412       .  A
C734        C739   1.451       .  S
C735        C736   1.410       .  A
C735        C742   1.452       .  S
C736        C737   1.409       .  A
C737        C738   1.410       .  A
C737        C740   1.451       .  S
C738        C741   1.452       .  S
C739        N746   1.157       .  T
C740        N745   1.157       .  T
C741        N743   1.157   1_455  T
C742        N744   1.157       .  T
C747        C748   1.417       .  A
C747        C752   1.411       .  A
C748        C749   1.413       .  A
C748        C753   1.453       .  S
C749        C750   1.417       .  A
C749        C756   1.451       .  S
C750        C751   1.422       .  A
C751        C752   1.411       .  A
C751        C754   1.451       .  S
C752        C755   1.452       .  S
C753        N760   1.158       .  T
C754        N759   1.157       .  T
C755        N757   1.157       .  T
C756        N758   1.158       .  T
O761        C764   1.269       .  A
O761       Cd766   2.494       .  S
C762        O771   1.264   1_455  A
C762        O767   1.269       .  A
O763        C769   1.269       .  A
O763       Cd766   2.440   1_455  S
C764        O772   1.262       .  A
C764        C853   1.462       .  S
C765        O770   1.268       .  A
C765        O768   1.262       .  A
C765       C1127   1.492       .  S
Cd766       O773   2.461   1_655  S
Cd766       O772   2.417       .  S
Cd766       O771   2.451       .  S
Cd766       O767   2.478   1_655  S
Cd766       O770   2.488       .  S
Cd766       O768   2.428       .  S
C769        O773   1.269       .  A
C769       C1113   1.493       .  S
O774        C777   1.268       .  A
O774       Cd779   2.478   1_445  S
C775        O784   1.265       .  A
C775        O780   1.270       .  A
C775        C840   1.462       .  S
O776        C782   1.270       .  A
O776       Cd779   2.509       .  S
C777        O785   1.263   1_445  A
C778        O783   1.270   1_455  A
C778        O781   1.267       .  A
C778       C1085   1.504       .  S
Cd779       O786   2.401       .  S
Cd779       O785   2.456       .  S
Cd779       O784   2.417       .  S
Cd779       O780   2.477       .  S
Cd779       O783   2.456       .  S
Cd779       O781   2.450   1_655  S
C782        O786   1.260       .  A
C782       C1099   1.493       .  S
O787       Cd792   2.466       .  S
C788        O797   1.266       .  A
C788        O793   1.270       .  A
C788       C1057   1.484       .  S
O789        C795   1.274       .  A
O789       Cd792   2.494       .  S
C790        O798   1.265       .  A
C790       C1102   1.484       .  S
C791        O796   1.272       .  A
C791        O794   1.266       .  A
C791       C1071   1.496       .  S
Cd792       O799   2.400       .  S
Cd792       O797   2.445       .  S
Cd792       O793   2.477       .  S
C795        O799   1.263       .  A
C795       C1130   1.502       .  S
O800        C803   1.269       .  A
O800       Cd805   2.481       .  S
C801        O810   1.265       .  A
C801        O806   1.269       .  A
C801        C879   1.464       .  S
O802        C808   1.270       .  A
O802       Cd805   2.507       .  S
C803        O811   1.263       .  A
C803        C816   1.467       .  S
C804        O809   1.270       .  A
C804        O807   1.269       .  A
C804       C1060   1.492       .  S
Cd805       O812   2.392       .  S
Cd805       O811   2.453       .  S
Cd805       O810   2.432       .  S
Cd805       O806   2.479       .  S
Cd805       O809   2.447       .  S
Cd805       O807   2.451       .  S
C808        O812   1.261       .  A
C808       C1043   1.486       .  S
O813        C816   1.268       .  A
O813       Cd818   2.483       .  S
C814        O823   1.265       .  A
C814        O819   1.269       .  A
C814        C892   1.463       .  S
O815        C821   1.270       .  A
O815       Cd818   2.514       .  S
C816        O824   1.263       .  A
C817        O822   1.271       .  A
C817        O820   1.269       .  A
C817       C1074   1.491       .  S
Cd818       O825   2.405       .  S
Cd818       O824   2.459       .  S
Cd818       O823   2.429       .  S
Cd818       O819   2.478       .  S
Cd818       O822   2.451       .  S
Cd818       O820   2.454       .  S
C821        O825   1.260       .  A
C821       C1032   1.492       .  S
O826        C829   1.269       .  A
O826       Cd831   2.467       .  S
C827        O836   1.267       .  A
C827        O832   1.268       .  A
C827       C1116   1.479       .  S
O828        C834   1.269       .  A
O828       Cd831   2.464       .  S
C829        O837   1.262       .  A
C829       C1029   1.488       .  S
C830        O835   1.268       .  A
C830        O833   1.265       .  A
C830       C1088   1.477       .  S
Cd831       O838   2.434       .  S
Cd831       O837   2.430       .  S
Cd831       O836   2.438       .  S
Cd831       O832   2.462       .  S
Cd831       O835   2.474       .  S
Cd831       O833   2.432       .  S
C834        O838   1.264       .  A
C834       C1046   1.481       .  S
C840        O849   1.263       .  A
C840        O845   1.267       .  A
O841        C847   1.267       .  A
O841       Cd844   2.484   1_455  S
C842        O850   1.262   1_545  A
C843        O848   1.268       .  A
C843        O846   1.269       .  A
C843       C1001   1.485       .  S
Cd844       O851   2.429   1_655  S
Cd844       O850   2.455       .  S
Cd844       O849   2.427       .  S
Cd844       O845   2.489       .  S
Cd844       O848   2.433       .  S
Cd844       O846   2.462       .  S
C847        O851   1.261       .  A
C847       C1015   1.486       .  S
O852        C855   1.267       .  A
O852       Cd857   2.481       .  S
C853        O862   1.266       .  A
C853        O858   1.270       .  A
O854        C860   1.269       .  A
O854       Cd857   2.511   1_455  S
C855        O863   1.262       .  A
C856        O861   1.270       .  A
C856        O859   1.267       .  A
C856        C976   1.500       .  S
Cd857       O864   2.409   1_655  S
Cd857       O863   2.459       .  S
Cd857       O862   2.414       .  S
Cd857       O858   2.482       .  S
Cd857       O861   2.461       .  S
Cd857       O859   2.449       .  S
C860        O864   1.259       .  A
C860        C987   1.497       .  S
O865        C868   1.270       .  A
C866        O875   1.265       .  A
C866        O871   1.272       .  A
C866        C990   1.487       .  S
O867        C873   1.272       .  A
O867      Cd1250   2.487       .  S
C868       O1256   1.267   1_554  A
C868        C962   1.496       .  S
C869       O1252   1.263       .  A
C869       C1018   1.502       .  S
Cd870      O1247   2.487   1_554  S
Cd870       O877   2.408       .  S
Cd870       O875   2.417       .  S
Cd870       O871   2.463       .  S
Cd870      O1254   2.491   1_554  S
O872       C1249   1.263   1_554  A
C873       O1257   1.265       .  A
C873        C948   1.507       .  S
O874      Cd1250   2.491       .  S
O876       C1248   1.267       .  A
O877       C1253   1.265   1_554  A
O878        C881   1.268       .  A
O878       Cd883   2.484       .  S
C879        O888   1.265       .  A
C879        O884   1.269       .  A
O880        C886   1.269       .  A
O880       Cd883   2.511       .  S
C881        O889   1.262       .  A
C881       C1274   1.466       .  S
C882        O887   1.269       .  A
C882        O885   1.268       .  A
C882        C945   1.481       .  S
Cd883       O890   2.404       .  S
Cd883       O889   2.460       .  S
Cd883       O888   2.433       .  S
Cd883       O884   2.475       .  S
Cd883       O887   2.452       .  S
Cd883       O885   2.451       .  S
C886        O890   1.260       .  A
C886        C931   1.492       .  S
O891        C894   1.269       .  A
O891       Cd896   2.482       .  S
C892        O901   1.265       .  A
C892        O897   1.269       .  A
O893        C899   1.270       .  A
O893       Cd896   2.505       .  S
C894        O902   1.263       .  A
C894       C1261   1.466   1_554  S
C895        O900   1.270       .  A
C895        O898   1.269       .  A
C895        C959   1.487       .  S
Cd896       O903   2.396       .  S
Cd896       O902   2.452       .  S
Cd896       O901   2.429       .  S
Cd896       O897   2.478       .  S
Cd896       O900   2.448       .  S
Cd896       O898   2.452       .  S
C899        O903   1.260       .  A
C899        C917   1.489       .  S
O904        C907   1.271       .  A
O904      Cd1289   2.464       .  S
C905       O1294   1.266       .  A
C905        O910   1.270       .  A
C905       C1004   1.494       .  S
O906        C912   1.270       .  A
O906       Cd909   2.466       .  S
C907       O1295   1.263       .  A
C907        C934   1.485       .  S
C908        O913   1.269       .  A
C908       O1291   1.266       .  A
C908        C973   1.477       .  S
Cd909      O1284   2.464   1_554  S
Cd909       O916   2.423       .  S
Cd909       O915   2.420   1_554  S
Cd909       O914   2.426       .  S
Cd909      O1290   2.466   1_554  S
Cd909       O913   2.473       .  S
Cd909      O1291   2.429       .  S
O910      Cd1289   2.466       .  S
O911       C1288   1.266       .  A
O911      Cd1289   2.429       .  S
C912        O916   1.263       .  A
C912        C920   1.482       .  S
O914       C1285   1.266   1_554  A
O915       C1287   1.263       .  A
C917        C918   1.414       .  A
C917        C922   1.417       .  A
C918        C919   1.414       .  A
C918        C923   1.450       .  S
C919        C920   1.413       .  A
C919        C926   1.450       .  S
C920        C921   1.413       .  A
C921        C922   1.407       .  A
C921        C924   1.453       .  S
C922        C925   1.454       .  S
C923        N930   1.157       .  T
C924        N929   1.157       .  T
C925        N927   1.158       .  T
C926        N928   1.157       .  T
C931        C932   1.419       .  A
C931        C936   1.415       .  A
C932        C933   1.408       .  A
C932        C937   1.454       .  S
C933        C934   1.414       .  A
C933        C940   1.454       .  S
C934        C935   1.414       .  A
C935        C936   1.414       .  A
C935        C938   1.450       .  S
C936        C939   1.450       .  S
C937        N944   1.158       .  T
C938        N943   1.157       .  T
C939        N941   1.157       .  T
C940        N942   1.157       .  T
C945        C946   1.406       .  A
C945        C950   1.409       .  A
C946       C1327   1.410       .  A
C946       C1331   1.454       .  S
C947       C1326   1.410   1_554  A
C947       C1328   1.428   1_554  A
C947        C954   1.453       .  S
C948       C1327   1.428       .  A
C948        C949   1.424       .  A
C949        C950   1.415       .  A
C949        C952   1.451       .  S
C950        C953   1.452       .  S
C951       C1326   1.454   1_554  S
C951        N958   1.157       .  T
C952        N957   1.158       .  T
C953        N955   1.157       .  T
C954        N956   1.158       .  T
C959        C960   1.413       .  A
C959        C964   1.411       .  A
C960        C961   1.413       .  A
C960        C965   1.452       .  S
C961        C962   1.419       .  A
C961        C968   1.452       .  S
C962        C963   1.420       .  A
C963        C964   1.411       .  A
C963       C1346   1.452   1_554  S
C964       C1347   1.453   1_554  S
C965        N972   1.157       .  T
C966       C1343   1.452       .  S
C966        N971   1.158       .  T
C967       C1344   1.453       .  S
C967        N969   1.157       .  T
C968        N970   1.158       .  T
C973        C974   1.407       .  A
C973        C978   1.407       .  A
C974        C975   1.411       .  A
C974        C979   1.453       .  S
C975        C976   1.422       .  A
C975        C982   1.451       .  S
C976        C977   1.422       .  A
C977        C978   1.413       .  A
C977        C980   1.451       .  S
C978        C981   1.451       .  S
C979        N986   1.157       .  T
C980        N985   1.157   1_655  T
C981        N983   1.157       .  T
C982        N984   1.158       .  T
C987        C988   1.423       .  A
C987        C992   1.416       .  A
C988        C989   1.409       .  A
C988        C993   1.454       .  S
C989        C990   1.412       .  A
C989        C996   1.453       .  S
C990        C991   1.413       .  A
C991        C992   1.414       .  A
C991        C994   1.451       .  S
C992        C995   1.450       .  S
C994        N999   1.157       .  T
C995        N997   1.157       .  T
C1001      C1002   1.411       .  A
C1001      C1006   1.413       .  A
C1002      C1383   1.410       .  A
C1002      C1387   1.453       .  S
C1003      C1382   1.410   1_554  A
C1003      C1384   1.419   1_554  A
C1003      C1010   1.452       .  S
C1004      C1383   1.419       .  A
C1004      C1005   1.418       .  A
C1005      C1006   1.413       .  A
C1005      C1008   1.452       .  S
C1006      C1009   1.452       .  S
C1007      C1382   1.453   1_554  S
C1007      N1014   1.157       .  T
C1008      N1013   1.158       .  T
C1009      N1011   1.157       .  T
C1010      N1012   1.157       .  T
C1015      C1016   1.414       .  A
C1015      C1020   1.410       .  A
C1016      C1017   1.412       .  A
C1016      C1021   1.453       .  S
C1017      C1018   1.418       .  A
C1017      C1024   1.450       .  S
C1018      C1019   1.424       .  A
C1019      C1020   1.410       .  A
C1019      C1402   1.452       .  S
C1020      C1403   1.453       .  S
C1021      N1028   1.157       .  T
C1022      C1399   1.452   1_554  S
C1022      N1027   1.157       .  T
C1023      C1400   1.453   1_554  S
C1023      N1025   1.158       .  T
C1024      N1026   1.157   1_565  T
C1029      C1030   1.415       .  A
C1029      C1034   1.415       .  A
C1030      C1031   1.408       .  A
C1030      C1035   1.454       .  S
C1031      C1032   1.418       .  A
C1031      C1038   1.454       .  S
C1032      C1033   1.414       .  A
C1033      C1034   1.415       .  A
C1033      C1036   1.450       .  S
C1034      C1037   1.451       .  S
C1035      N1042   1.157       .  T
C1036      N1041   1.157       .  T
C1037      N1039   1.157       .  T
C1038      N1040   1.158       .  T
C1043      C1044   1.416       .  A
C1043      C1048   1.414       .  A
C1044      C1045   1.406       .  A
C1044      C1049   1.455       .  S
C1045      C1046   1.413       .  A
C1045      C1052   1.452       .  S
C1046      C1047   1.412       .  A
C1047      C1048   1.415       .  A
C1047      C1050   1.450       .  S
C1048      C1051   1.450       .  S
C1049      N1056   1.158       .  T
C1050      N1055   1.157       .  T
C1051      N1053   1.157       .  T
C1052      N1054   1.157       .  T
C1057      C1058   1.410       .  A
C1057      C1062   1.412       .  A
C1058      C1059   1.411       .  A
C1058      C1063   1.448       .  S
C1059      C1060   1.416       .  A
C1059      C1066   1.452       .  S
C1060      C1061   1.417       .  A
C1061      C1062   1.412       .  A
C1061      C1064   1.451       .  S
C1062      C1065   1.451       .  S
C1063      N1070   1.156       .  T
C1064      N1069   1.157       .  T
C1065      N1067   1.157       .  T
C1066      N1068   1.157       .  T
C1071      C1072   1.416       .  A
C1071      C1076   1.419       .  A
C1072      C1073   1.415       .  A
C1072      C1077   1.452       .  S
C1073      C1074   1.416       .  A
C1073      C1080   1.452       .  S
C1074      C1075   1.412       .  A
C1075      C1076   1.411       .  A
C1075      C1078   1.453       .  S
C1076      C1079   1.451       .  S
C1077      N1084   1.157       .  T
C1078      N1083   1.157       .  T
C1079      N1081   1.157       .  T
C1080      N1082   1.157       .  T
C1085      C1086   1.424       .  A
C1085      C1090   1.425       .  A
C1086      C1087   1.412       .  A
C1086      C1091   1.451       .  S
C1087      C1088   1.406       .  A
C1087      C1094   1.451       .  S
C1088      C1089   1.406       .  A
C1089      C1090   1.412       .  A
C1089      C1092   1.453       .  S
C1090      C1093   1.451       .  S
C1091      N1098   1.158   1_455  T
C1092      N1097   1.157       .  T
C1093      N1095   1.158       .  T
C1094      N1096   1.157       .  T
C1099      C1100   1.420   1_565  A
C1099      C1104   1.416       .  A
C1101      C1108   1.452       .  S
C1102      C1103   1.412       .  A
C1103      C1104   1.415       .  A
C1103      C1106   1.450       .  S
C1104      C1107   1.450       .  S
C1105      N1112   1.158       .  T
C1106      N1111   1.157       .  T
C1107      N1109   1.157       .  T
C1108      N1110   1.157       .  T
C1113      C1114   1.418       .  A
C1113      C1118   1.419       .  A
C1114      C1115   1.412       .  A
C1114      C1119   1.451       .  S
C1115      C1116   1.410       .  A
C1115      C1122   1.452       .  S
C1116      C1117   1.409       .  A
C1117      C1118   1.410       .  A
C1117      C1120   1.451       .  S
C1118      C1121   1.452       .  S
C1119      N1126   1.157       .  T
C1120      N1125   1.157       .  T
C1121      N1123   1.157   1_455  T
C1122      N1124   1.157       .  T
C1127      C1128   1.417       .  A
C1127      C1132   1.411       .  A
C1128      C1129   1.413       .  A
C1128      C1133   1.453       .  S
C1129      C1130   1.417       .  A
C1129      C1136   1.451       .  S
C1130      C1131   1.422       .  A
C1131      C1132   1.411       .  A
C1131      C1134   1.451       .  S
C1132      C1135   1.452       .  S
C1133      N1140   1.158       .  T
C1134      N1139   1.157       .  T
C1135      N1137   1.157       .  T
C1136      N1138   1.158       .  T
O1141      C1144   1.269       .  A
O1141     Cd1146   2.494       .  S
C1142      O1151   1.264   1_455  A
C1142      O1147   1.269       .  A
O1143      C1149   1.269       .  A
O1143     Cd1146   2.440   1_455  S
C1144      O1152   1.262       .  A
C1144      C1233   1.462       .  S
C1145      O1150   1.268       .  A
C1145      O1148   1.262       .  A
C1145      C1507   1.492       .  S
Cd1146     O1153   2.461   1_655  S
Cd1146     O1152   2.417       .  S
Cd1146     O1151   2.451       .  S
Cd1146     O1147   2.478   1_655  S
Cd1146     O1150   2.488       .  S
Cd1146     O1148   2.428       .  S
C1149      O1153   1.269       .  A
C1149      C1493   1.493       .  S
O1154      C1157   1.268       .  A
O1154     Cd1159   2.478   1_445  S
C1155      O1164   1.265       .  A
C1155      O1160   1.270       .  A
C1155      C1220   1.462       .  S
O1156      C1162   1.270       .  A
O1156     Cd1159   2.509       .  S
C1157      O1165   1.263   1_445  A
C1158      O1163   1.270   1_455  A
C1158      O1161   1.267       .  A
C1158      C1465   1.504       .  S
Cd1159     O1166   2.401       .  S
Cd1159     O1165   2.456       .  S
Cd1159     O1164   2.417       .  S
Cd1159     O1160   2.477       .  S
Cd1159     O1163   2.456       .  S
Cd1159     O1161   2.450   1_655  S
C1162      O1166   1.260       .  A
C1162      C1479   1.493       .  S
O1167     Cd1172   2.466       .  S
C1168      O1177   1.266       .  A
C1168      O1173   1.270       .  A
C1168      C1437   1.484       .  S
O1169      C1175   1.274       .  A
O1169     Cd1172   2.494       .  S
C1170      O1178   1.265       .  A
C1170      C1482   1.484       .  S
C1171      O1176   1.272       .  A
C1171      O1174   1.266       .  A
C1171      C1451   1.496       .  S
Cd1172     O1179   2.400       .  S
Cd1172     O1177   2.445       .  S
Cd1172     O1173   2.477       .  S
C1175      O1179   1.263       .  A
C1175      C1510   1.502       .  S
O1180      C1183   1.269       .  A
O1180     Cd1185   2.481       .  S
C1181      O1190   1.265       .  A
C1181      O1186   1.269       .  A
C1181      C1259   1.464       .  S
O1182      C1188   1.270       .  A
O1182     Cd1185   2.507       .  S
C1183      O1191   1.263       .  A
C1183      C1196   1.467       .  S
C1184      O1189   1.270       .  A
C1184      O1187   1.269       .  A
C1184      C1440   1.492       .  S
Cd1185     O1192   2.392       .  S
Cd1185     O1191   2.453       .  S
Cd1185     O1190   2.432       .  S
Cd1185     O1186   2.479       .  S
Cd1185     O1189   2.447       .  S
Cd1185     O1187   2.451       .  S
C1188      O1192   1.261       .  A
C1188      C1423   1.486       .  S
O1193      C1196   1.268       .  A
O1193     Cd1198   2.483       .  S
C1194      O1203   1.265       .  A
C1194      O1199   1.269       .  A
C1194      C1272   1.463       .  S
O1195      C1201   1.270       .  A
O1195     Cd1198   2.514       .  S
C1196      O1204   1.263       .  A
C1197      O1202   1.271       .  A
C1197      O1200   1.269       .  A
C1197      C1454   1.491       .  S
Cd1198     O1205   2.405       .  S
Cd1198     O1204   2.459       .  S
Cd1198     O1203   2.429       .  S
Cd1198     O1199   2.478       .  S
Cd1198     O1202   2.451       .  S
Cd1198     O1200   2.454       .  S
C1201      O1205   1.260       .  A
C1201      C1412   1.492       .  S
O1206      C1209   1.269       .  A
O1206     Cd1211   2.467       .  S
C1207      O1216   1.267       .  A
C1207      O1212   1.268       .  A
C1207      C1496   1.479       .  S
O1208      C1214   1.269       .  A
O1208     Cd1211   2.464       .  S
C1209      O1217   1.262       .  A
C1209      C1409   1.488       .  S
C1210      O1215   1.268       .  A
C1210      O1213   1.265       .  A
C1210      C1468   1.477       .  S
Cd1211     O1218   2.434       .  S
Cd1211     O1217   2.430       .  S
Cd1211     O1216   2.438       .  S
Cd1211     O1212   2.462       .  S
Cd1211     O1215   2.474       .  S
Cd1211     O1213   2.432       .  S
C1214      O1218   1.264       .  A
C1214      C1426   1.481       .  S
C1220      O1229   1.263       .  A
C1220      O1225   1.267       .  A
O1221      C1227   1.267       .  A
O1221     Cd1224   2.484   1_455  S
C1222      O1230   1.262   1_546  A
C1223      O1228   1.268       .  A
C1223      O1226   1.269       .  A
C1223      C1381   1.485       .  S
Cd1224     O1231   2.429   1_655  S
Cd1224     O1230   2.455   1_556  S
Cd1224     O1229   2.427       .  S
Cd1224     O1225   2.489       .  S
Cd1224     O1228   2.433       .  S
Cd1224     O1226   2.462       .  S
C1227      O1231   1.261       .  A
C1227      C1395   1.486       .  S
O1232      C1235   1.267       .  A
O1232     Cd1237   2.481       .  S
C1233      O1242   1.266       .  A
C1233      O1238   1.270       .  A
O1234      C1240   1.269       .  A
O1234     Cd1237   2.511   1_455  S
C1235      O1243   1.262       .  A
C1236      O1241   1.270       .  A
C1236      O1239   1.267       .  A
C1236      C1356   1.500       .  S
Cd1237     O1244   2.409   1_655  S
Cd1237     O1243   2.459       .  S
Cd1237     O1242   2.414       .  S
Cd1237     O1238   2.482       .  S
Cd1237     O1241   2.461       .  S
Cd1237     O1239   2.449       .  S
C1240      O1244   1.259       .  A
C1240      C1367   1.497       .  S
O1245      C1248   1.270       .  A
C1246      O1255   1.265       .  A
C1246      O1251   1.272       .  A
C1246      C1370   1.487       .  S
O1247      C1253   1.272       .  A
C1248      C1342   1.496       .  S
C1249      C1398   1.502       .  S
Cd1250     O1257   2.408       .  S
Cd1250     O1255   2.417       .  S
Cd1250     O1251   2.463       .  S
C1253      C1328   1.507       .  S
O1258      C1261   1.268       .  A
O1258     Cd1263   2.484       .  S
C1259      O1268   1.265       .  A
C1259      O1264   1.269       .  A
O1260      C1266   1.269       .  A
O1260     Cd1263   2.511       .  S
C1261      O1269   1.262       .  A
C1262      O1267   1.269       .  A
C1262      O1265   1.268       .  A
C1262      C1325   1.481       .  S
Cd1263     O1270   2.404       .  S
Cd1263     O1269   2.460       .  S
Cd1263     O1268   2.433       .  S
Cd1263     O1264   2.475       .  S
Cd1263     O1267   2.452       .  S
Cd1263     O1265   2.451       .  S
C1266      O1270   1.260       .  A
C1266      C1311   1.492       .  S
O1271      C1274   1.269       .  A
O1271     Cd1276   2.482       .  S
C1272      O1281   1.265       .  A
C1272      O1277   1.269       .  A
O1273      C1279   1.270       .  A
O1273     Cd1276   2.505       .  S
C1274      O1282   1.263       .  A
C1275      O1280   1.270       .  A
C1275      O1278   1.269       .  A
C1275      C1339   1.487       .  S
Cd1276     O1283   2.396       .  S
Cd1276     O1282   2.452       .  S
Cd1276     O1281   2.429       .  S
Cd1276     O1277   2.478       .  S
Cd1276     O1280   2.448       .  S
Cd1276     O1278   2.452       .  S
C1279      O1283   1.260       .  A
C1279      C1297   1.489       .  S
O1284      C1287   1.271       .  A
C1285      O1290   1.270       .  A
C1285      C1384   1.494       .  S
O1286      C1292   1.270       .  A
O1286     Cd1289   2.466       .  S
C1287      C1314   1.485       .  S
C1288      O1293   1.269       .  A
C1288      C1353   1.477       .  S
Cd1289     O1296   2.423       .  S
Cd1289     O1295   2.420       .  S
Cd1289     O1294   2.426       .  S
Cd1289     O1293   2.473       .  S
C1292      O1296   1.263       .  A
C1292      C1300   1.482       .  S
C1297      C1298   1.414       .  A
C1297      C1302   1.417       .  A
C1298      C1299   1.414       .  A
C1298      C1303   1.450       .  S
C1299      C1300   1.413       .  A
C1299      C1306   1.450       .  S
C1300      C1301   1.413       .  A
C1301      C1302   1.407       .  A
C1301      C1304   1.453       .  S
C1302      C1305   1.454       .  S
C1303      N1310   1.157       .  T
C1304      N1309   1.157       .  T
C1305      N1307   1.158       .  T
C1306      N1308   1.157       .  T
C1311      C1312   1.419       .  A
C1311      C1316   1.415       .  A
C1312      C1313   1.408       .  A
C1312      C1317   1.454       .  S
C1313      C1314   1.414       .  A
C1313      C1320   1.454       .  S
C1314      C1315   1.414       .  A
C1315      C1316   1.414       .  A
C1315      C1318   1.450       .  S
C1316      C1319   1.450       .  S
C1317      N1324   1.158       .  T
C1318      N1323   1.157       .  T
C1319      N1321   1.157       .  T
C1320      N1322   1.157       .  T
C1325      C1326   1.406       .  A
C1325      C1330   1.409       .  A
C1327      C1334   1.453       .  S
C1328      C1329   1.424       .  A
C1329      C1330   1.415       .  A
C1329      C1332   1.451       .  S
C1330      C1333   1.452       .  S
C1331      N1338   1.157       .  T
C1332      N1337   1.158       .  T
C1333      N1335   1.157       .  T
C1334      N1336   1.158       .  T
C1339      C1340   1.413       .  A
C1339      C1344   1.411       .  A
C1340      C1341   1.413       .  A
C1340      C1345   1.452       .  S
C1341      C1342   1.419       .  A
C1341      C1348   1.452       .  S
C1342      C1343   1.420       .  A
C1343      C1344   1.411       .  A
C1345      N1352   1.157       .  T
C1346      N1351   1.158       .  T
C1347      N1349   1.157       .  T
C1348      N1350   1.158       .  T
C1353      C1354   1.407       .  A
C1353      C1358   1.407       .  A
C1354      C1355   1.411       .  A
C1354      C1359   1.453       .  S
C1355      C1356   1.422       .  A
C1355      C1362   1.451       .  S
C1356      C1357   1.422       .  A
C1357      C1358   1.413       .  A
C1357      C1360   1.451       .  S
C1358      C1361   1.451       .  S
C1359      N1366   1.157       .  T
C1360      N1365   1.157   1_655  T
C1361      N1363   1.157       .  T
C1362      N1364   1.158       .  T
C1367      C1368   1.423       .  A
C1367      C1372   1.416       .  A
C1368      C1369   1.409       .  A
C1368      C1373   1.454       .  S
C1369      C1370   1.412       .  A
C1369      C1376   1.453       .  S
C1370      C1371   1.413       .  A
C1371      C1372   1.414       .  A
C1371      C1374   1.451       .  S
C1372      C1375   1.450       .  S
C1374      N1379   1.157       .  T
C1375      N1377   1.157       .  T
C1381      C1382   1.411       .  A
C1381      C1386   1.413       .  A
C1383      C1390   1.452       .  S
C1384      C1385   1.418       .  A
C1385      C1386   1.413       .  A
C1385      C1388   1.452       .  S
C1386      C1389   1.452       .  S
C1387      N1394   1.157       .  T
C1388      N1393   1.158       .  T
C1389      N1391   1.157       .  T
C1390      N1392   1.157       .  T
C1395      C1396   1.414       .  A
C1395      C1400   1.410       .  A
C1396      C1397   1.412       .  A
C1396      C1401   1.453       .  S
C1397      C1398   1.418       .  A
C1397      C1404   1.450       .  S
C1398      C1399   1.424       .  A
C1399      C1400   1.410       .  A
C1401      N1408   1.157       .  T
C1402      N1407   1.157       .  T
C1403      N1405   1.158       .  T
C1404      N1406   1.157   1_565  T
C1409      C1410   1.415       .  A
C1409      C1414   1.415       .  A
C1410      C1411   1.408       .  A
C1410      C1415   1.454       .  S
C1411      C1412   1.418       .  A
C1411      C1418   1.454       .  S
C1412      C1413   1.414       .  A
C1413      C1414   1.415       .  A
C1413      C1416   1.450       .  S
C1414      C1417   1.451       .  S
C1415      N1422   1.157       .  T
C1416      N1421   1.157       .  T
C1417      N1419   1.157       .  T
C1418      N1420   1.158       .  T
C1423      C1424   1.416       .  A
C1423      C1428   1.414       .  A
C1424      C1425   1.406       .  A
C1424      C1429   1.455       .  S
C1425      C1426   1.413       .  A
C1425      C1432   1.452       .  S
C1426      C1427   1.412       .  A
C1427      C1428   1.415       .  A
C1427      C1430   1.450       .  S
C1428      C1431   1.450       .  S
C1429      N1436   1.158       .  T
C1430      N1435   1.157       .  T
C1431      N1433   1.157       .  T
C1432      N1434   1.157       .  T
C1437      C1438   1.410       .  A
C1437      C1442   1.412       .  A
C1438      C1439   1.411       .  A
C1438      C1443   1.448       .  S
C1439      C1440   1.416       .  A
C1439      C1446   1.452       .  S
C1440      C1441   1.417       .  A
C1441      C1442   1.412       .  A
C1441      C1444   1.451       .  S
C1442      C1445   1.451       .  S
C1443      N1450   1.156       .  T
C1444      N1449   1.157       .  T
C1445      N1447   1.157       .  T
C1446      N1448   1.157       .  T
C1451      C1452   1.416       .  A
C1451      C1456   1.419       .  A
C1452      C1453   1.415       .  A
C1452      C1457   1.452       .  S
C1453      C1454   1.416       .  A
C1453      C1460   1.452       .  S
C1454      C1455   1.412       .  A
C1455      C1456   1.411       .  A
C1455      C1458   1.453       .  S
C1456      C1459   1.451       .  S
C1457      N1464   1.157       .  T
C1458      N1463   1.157       .  T
C1459      N1461   1.157       .  T
C1460      N1462   1.157       .  T
C1465      C1466   1.424       .  A
C1465      C1470   1.425       .  A
C1466      C1467   1.412       .  A
C1466      C1471   1.451       .  S
C1467      C1468   1.406       .  A
C1467      C1474   1.451       .  S
C1468      C1469   1.406       .  A
C1469      C1470   1.412       .  A
C1469      C1472   1.453       .  S
C1470      C1473   1.451       .  S
C1471      N1478   1.158   1_455  T
C1472      N1477   1.157       .  T
C1473      N1475   1.158       .  T
C1474      N1476   1.157       .  T
C1479      C1480   1.420   1_565  A
C1479      C1484   1.416       .  A
C1481      C1488   1.452       .  S
C1482      C1483   1.412       .  A
C1483      C1484   1.415       .  A
C1483      C1486   1.450       .  S
C1484      C1487   1.450       .  S
C1485      N1492   1.158       .  T
C1486      N1491   1.157       .  T
C1487      N1489   1.157       .  T
C1488      N1490   1.157       .  T
C1493      C1494   1.418       .  A
C1493      C1498   1.419       .  A
C1494      C1495   1.412       .  A
C1494      C1499   1.451       .  S
C1495      C1496   1.410       .  A
C1495      C1502   1.452       .  S
C1496      C1497   1.409       .  A
C1497      C1498   1.410       .  A
C1497      C1500   1.451       .  S
C1498      C1501   1.452       .  S
C1499      N1506   1.157       .  T
C1500      N1505   1.157       .  T
C1501      N1503   1.157   1_455  T
C1502      N1504   1.157       .  T
C1507      C1508   1.417       .  A
C1507      C1512   1.411       .  A
C1508      C1509   1.413       .  A
C1508      C1513   1.453       .  S
C1509      C1510   1.417       .  A
C1509      C1516   1.451       .  S
C1510      C1511   1.422       .  A
C1511      C1512   1.411       .  A
C1511      C1514   1.451       .  S
C1512      C1515   1.452       .  S
C1513      N1520   1.158       .  T
C1514      N1519   1.157       .  T
C1515      N1517   1.157       .  T
C1516      N1518   1.158       .  T
