geometry optimzed in LAMMPS
_audit_creation_date              2020-11-30 
_audit_creation_method            'lammps2cif' 
_symmetry_space_group_name_H-M    'P1' 
_symmetry_Int_Tables_number       1 
_symmetry_cell_setting            triclinic 
loop_ 
_symmetry_equiv_pos_as_xyz 
  x,y,z 
_cell_length_a                    39.47979037 
_cell_length_b                    38.13089673239701 
_cell_length_c                    40.09053295307356 
_cell_angle_alpha                 89.07407808037595 
_cell_angle_beta                  89.09732945918688 
_cell_angle_gamma                 89.59849632694649 
loop_ 
_atom_site_label 
_atom_site_type_symbol 
_atom_site_fract_x 
_atom_site_fract_y 
_atom_site_fract_z 
_atom_site_charge 
O1          O  0.43330047  0.46132084  0.02081706    -0.80600
O2          O  0.04773262  0.04160179  0.04222433    -0.80600
O3          O  0.03033401  0.41362598  0.02233740    -0.80600
O4          O  0.47903452  0.03823928  0.04943310    -0.80500
O5          O  0.04714638  0.46403013  0.04327839    -0.80700
O6          O  0.43127467  0.03202448  0.02431996    -0.80600
O7          O  0.02040771  0.08946490  0.02410074    -0.80600
O8          O  0.48039780  0.45585535  0.04779703    -0.80600
C9          C  0.44902353  0.45012178  0.04607637     1.09100
C10         C  0.04361066  0.07555670  0.04149004     1.09000
C11         C  0.05002862  0.43023583  0.04141305     1.09100
C12         C  0.44710518  0.03978173  0.05055996     1.09000
O13         O  0.44782429  0.03609079  0.45327028    -0.80600
O14         O  0.07014249  0.46737981  0.47349769    -0.80600
O15         O  0.46893602  0.42250395  0.48374762    -0.80600
O16         O  0.02118414  0.06384687  0.46186400    -0.80600
O17         O  0.06793893  0.03732062  0.47291919    -0.80600
O18         O  0.45146862  0.46503175  0.45093621    -0.80600
O19         O  0.46172233  0.07665100  0.48809181    -0.80500
O20         O  0.02351849  0.44386495  0.45984415    -0.80600
Co21       Co  0.44475065  0.49893060  0.98729129     1.51500
Co22       Co  0.05111298  0.00228340  0.50644509     1.51700
Co23       Co  0.50491949  0.45242456  0.00433735     1.51600
Co24       Co  0.50172201  0.04893256  0.50568932     1.51500
O25         O  0.49679208  0.50100349  0.99101124    -1.42500
C26         C  0.44686479  0.06770888  0.46170810     1.09000
C27         C  0.05405424  0.44820308  0.45416827     1.09100
C28         C  0.45364927  0.43256086  0.45748002     1.09100
C29         C  0.05215238  0.05971957  0.45591345     1.09000
O30         O  0.32795846  0.28286543  0.26866804    -0.80600
O31         O  0.19029116  0.23359418  0.28478687    -0.80600
O32         O  0.21770344  0.30766178  0.29709843    -0.80600
O33         O  0.28125116  0.17932792  0.27683297    -0.80500
O34         O  0.17943589  0.29462266  0.26045282    -0.80700
O35         O  0.30304110  0.22707393  0.29226459    -0.80600
O36         O  0.21361881  0.18408422  0.27340476    -0.80600
O37         O  0.28755101  0.30373526  0.30107286    -0.80600
C38         C  0.31880512  0.29868157  0.29498241     1.09100
C39         C  0.19288166  0.20154416  0.29051216     1.09000
C40         C  0.18749450  0.30969795  0.28726853     1.09100
C41         C  0.29926910  0.19522565  0.29718280     1.09000
O42         O  0.33655586  0.21947388  0.23200780    -0.80600
O43         O  0.21762418  0.27924945  0.19959447    -0.80600
O44         O  0.29288181  0.32243895  0.23159797    -0.80600
O45         O  0.21610351  0.20791585  0.20373634    -0.80600
O46         O  0.16830626  0.23437642  0.22054270    -0.80600
O47         O  0.29900429  0.27357646  0.20405235    -0.80600
O48         O  0.28981607  0.20260827  0.20714170    -0.80500
O49         O  0.22406450  0.32746441  0.22702370    -0.80600
Co50       Co  0.29868320  0.24699206  0.24734127     1.51500
Co51       Co  0.20625837  0.25379035  0.24189922     1.51700
Co52       Co  0.25522618  0.31130492  0.26409414     1.51600
Co53       Co  0.25039773  0.20109701  0.24213396     1.51500
O54         O  0.25199906  0.25747708  0.25840642    -1.42500
C55         C  0.32232492  0.20033642  0.21074193     1.09000
C56         C  0.21450706  0.31221228  0.20087877     1.09100
C57         C  0.30420492  0.30625645  0.20638116     1.09100
C58         C  0.18357436  0.21252252  0.20175966     1.09000
C59         C  0.16481959  0.19361187  0.17585640     0.00900
C60         C  0.16654173  0.15659679  0.17464224     0.03700
C61         C  0.14740916  0.13845513  0.15115584    -0.12300
C62         C  0.12914624  0.15722054  0.12663030     0.23000
C63         C  0.12981743  0.19416665  0.12615498    -0.12900
C64         C  0.14537901  0.21210644  0.15211860     0.04400
C65         C  0.10726684  0.13823223  0.10307254     0.26900
C66         C  0.12173455  0.11759326  0.07764946    -0.13400
C67         C  0.10093968  0.09626900  0.05831106     0.04900
C68         C  0.06527620  0.09810137  0.06202488    -0.09600
C69         C  0.05090066  0.12284531  0.08404724     0.05800
C70         C  0.07168669  0.14062213  0.10629376    -0.13900
Br71       Br  0.11011620  0.22016579  0.08945766    -0.06000
Br72       Br  0.19331795  0.13028990  0.20640294    -0.00400
Br73       Br  0.12154832  0.06686681  0.02482867     0.00100
Br74       Br  0.05121263  0.16720328  0.14202356    -0.04300
Br75       Br  0.13855062  0.26170681  0.15572698     0.00200
Br76       Br  0.14507373  0.08788439  0.15346551    -0.03600
Br77       Br  0.16988726  0.11963793  0.06861396    -0.04500
Br78       Br  0.00338442  0.13472975  0.08262828    -0.00500
C79         C  0.17087393  0.18428369  0.31601026     0.00900
C80         C  0.14118376  0.16698143  0.30636010     0.03700
C81         C  0.12111307  0.14896568  0.33027000    -0.12300
C82         C  0.13072321  0.14778931  0.36395600     0.23000
C83         C  0.15957497  0.16641037  0.37389551    -0.12900
C84         C  0.17920147  0.18521052  0.35001048     0.04400
C85         C  0.11104482  0.12566639  0.38826020     0.26900
C86         C  0.08533805  0.14053186  0.40838084    -0.13600
C87         C  0.06537982  0.11901889  0.42978772     0.04900
C88         C  0.07085454  0.08217971  0.43104473    -0.09600
C89         C  0.09692697  0.06754379  0.41082817     0.05800
C90         C  0.11678275  0.08919035  0.38960050    -0.13900
Br91       Br  0.17261020  0.16543415  0.42001516    -0.06000
Br92       Br  0.12711824  0.16880968  0.26059382    -0.00400
Br93       Br  0.03232361  0.14106506  0.45881195     0.00100
Br94       Br  0.15205216  0.06892465  0.36190788    -0.04300
Br95       Br  0.21725572  0.21269498  0.36363580     0.00200
Br96       Br  0.08041340  0.12541441  0.31701575    -0.03600
Br97       Br  0.07776008  0.19062103  0.40654975    -0.04500
Br98       Br  0.10545762  0.01763244  0.41111405    -0.00500
C99         C  0.07539235  0.41140068  0.06251003     0.00900
C100        C  0.10924428  0.42356352  0.06330173     0.03700
C101        C  0.13367958  0.40576576  0.08265309    -0.12300
C102        C  0.12455843  0.37634668  0.10239302     0.23000
C103        C  0.09075867  0.36433321  0.10191516    -0.12900
C104        C  0.06639168  0.38146935  0.08180334     0.04400
C105        C  0.14941481  0.36116635  0.12668255     0.26900
C106        C  0.17346201  0.33552398  0.11714676    -0.13600
C107        C  0.19678192  0.32173903  0.14058993     0.04900
C108        C  0.19518623  0.33213612  0.17438625    -0.09600
C109        C  0.17221372  0.35961628  0.18310880     0.05800
C110        C  0.14989643  0.37407305  0.15931237    -0.13900
Br111      Br  0.07731588  0.32535239  0.13009183    -0.06000
Br112      Br  0.12296497  0.46451711  0.03760912    -0.00400
Br113      Br  0.23120538  0.28896254  0.12599076     0.00100
Br114      Br  0.11933553  0.41192818  0.17125940    -0.04300
Br115      Br  0.02002916  0.36552934  0.08300291     0.00200
Br116      Br  0.17979206  0.42229602  0.08306130    -0.03600
Br117      Br  0.17345487  0.31839283  0.07218260    -0.04500
Br118      Br  0.16918751  0.37775668  0.22764267    -0.00500
C119        C  0.42824731  0.05502209  0.08035772     0.00900
C120        C  0.44605434  0.06846064  0.10798199     0.03700
C121        C  0.43001723  0.09227301  0.13000796    -0.12300
C122        C  0.39508495  0.09949655  0.12762313     0.23000
C123        C  0.37604140  0.08096817  0.10438386    -0.12900
C124        C  0.39233930  0.05950747  0.08043921     0.04400
C125        C  0.37809743  0.12628171  0.14946816     0.26900
C126        C  0.37103332  0.11879404  0.18344707    -0.13600
C127        C  0.35493476  0.14411211  0.20369580     0.04900
C128        C  0.34282946  0.17594571  0.18965296    -0.09600
C129        C  0.34909580  0.18310983  0.15544228     0.05800
C130        C  0.36789742  0.15905922  0.13586534    -0.13900
Br131      Br  0.32721127  0.08495348  0.10596881    -0.06000
Br132      Br  0.49121287  0.05228932  0.11852756    -0.00400
Br133      Br  0.34906905  0.13472144  0.25079372     0.00100
Br134      Br  0.38018225  0.17107186  0.09034682    -0.04300
Br135      Br  0.36394557  0.03556788  0.04928745     0.00200
Br136      Br  0.45620900  0.11604888  0.16296947    -0.03600
Br137      Br  0.38189536  0.07312958  0.20194258    -0.04500
Br138      Br  0.33182231  0.22564966  0.13516359    -0.00500
C139        C  0.43738253  0.40735652  0.43474232     0.00900
C140        C  0.40619650  0.41667521  0.41972946     0.03700
C141        C  0.39144076  0.39444401  0.39658183    -0.12300
C142        C  0.40669496  0.36207631  0.38897030     0.23000
C143        C  0.43717683  0.35200558  0.40432674    -0.12900
C144        C  0.45274182  0.37468081  0.42696339     0.04400
C145        C  0.38978712  0.33934036  0.36463033     0.26900
C146        C  0.36418300  0.31625121  0.37580269    -0.13600
C147        C  0.34157621  0.30205345  0.35290071     0.04900
C148        C  0.34447642  0.31096436  0.31862208    -0.09600
C149        C  0.37160202  0.33225621  0.30723973     0.05800
C150        C  0.39431033  0.34617647  0.33022460    -0.13900
Br151      Br  0.45762013  0.30735009  0.39377250    -0.06000
Br152      Br  0.38174629  0.45893809  0.43173603    -0.00400
Br153      Br  0.30674632  0.27030047  0.36872323     0.00100
Br154      Br  0.43012416  0.37708513  0.31511667    -0.04300
Br155      Br  0.49579983  0.36121056  0.44563318     0.00200
Br156      Br  0.35001325  0.40843909  0.37468269    -0.03600
Br157      Br  0.35892242  0.30596334  0.42286487    -0.04500
Br158      Br  0.37586684  0.34564947  0.26073951    -0.00500
C159        C  0.31795547  0.17740868  0.32496450     0.00900
C160        C  0.34964239  0.19105741  0.33497061     0.03700
C161        C  0.36670227  0.17631338  0.36226513    -0.12300
C162        C  0.35526876  0.14493333  0.37701781     0.23000
C163        C  0.32469914  0.13004992  0.36653909    -0.12900
C164        C  0.30535458  0.14692036  0.34148941     0.04400
C165        C  0.37850057  0.12552220  0.39962597     0.26900
C166        C  0.40414059  0.10439098  0.38546068    -0.13600
C167        C  0.42885441  0.08884676  0.40577428     0.04900
C168        C  0.42699512  0.09243512  0.44077699    -0.09600
C169        C  0.40215452  0.11484803  0.45492348     0.05800
C170        C  0.37811901  0.13159568  0.43423718    -0.13900
Br171      Br  0.31022879  0.08586906  0.38580722    -0.06000
Br172      Br  0.37368594  0.22624650  0.30896891    -0.00400
Br173      Br  0.46642230  0.06395106  0.38527455     0.00100
Br174      Br  0.34463140  0.16295098  0.45299615    -0.04300
Br175      Br  0.26192859  0.12777840  0.33030794     0.00200
Br176      Br  0.40715078  0.19813859  0.37876458    -0.03600
Br177      Br  0.40532160  0.09669987  0.33793530    -0.04500
Br178      Br  0.40015903  0.12208931  0.00243983    -0.00500
C179        C  0.07057451  0.42881620  0.42664210     0.00900
C180        C  0.09530177  0.40307476  0.43390244     0.03700
C181        C  0.10982078  0.38312171  0.40817997    -0.12300
C182        C  0.09990223  0.38881491  0.37494458     0.23000
C183        C  0.07412234  0.41335506  0.36766615    -0.12900
C184        C  0.05897582  0.43286050  0.39358660     0.04400
C185        C  0.11913116  0.37097315  0.34794055     0.26900
C186        C  0.15077996  0.38453027  0.33795567    -0.13600
C187        C  0.17266805  0.36483070  0.31750847     0.04900
C188        C  0.16280473  0.33135378  0.30640135    -0.09600
C189        C  0.13015519  0.31866125  0.31494471     0.05800
C190        C  0.10837876  0.33851969  0.33570082    -0.13900
Br191      Br  0.06011950  0.42043870  0.32216923    -0.06000
Br192      Br  0.10753690  0.39282266  0.47931929    -0.00400
Br193      Br  0.21621236  0.38447188  0.30500513     0.00100
Br194      Br  0.06440353  0.32077017  0.34880453    -0.04300
Br195      Br  0.02237199  0.46504912  0.38371771     0.00200
Br196      Br  0.14359144  0.34776109  0.41830283    -0.03600
Br197      Br  0.16461188  0.42977362  0.35384128    -0.04500
Br198      Br  0.11614521  0.27284047  0.30104601    -0.00500
C199        C  0.32653190  0.32590146  0.18232273     0.00900
C200        C  0.35930965  0.31304469  0.17383685     0.03700
C201        C  0.38078158  0.33240253  0.15221016    -0.12300
C202        C  0.37123636  0.36619917  0.14142584     0.23000
C203        C  0.33996748  0.38046608  0.15180041    -0.12900
C204        C  0.31747658  0.36037136  0.17176173     0.04400
C205        C  0.39301391  0.38607454  0.11743778     0.26900
C206        C  0.41849560  0.40852627  0.12856679    -0.13600
C207        C  0.43770197  0.42869862  0.10539996     0.04900
C208        C  0.43073778  0.42729150  0.07092041    -0.09600
C209        C  0.40546840  0.40372800  0.06002457     0.05800
C210        C  0.38707729  0.38314883  0.08323074    -0.13900
Br211      Br  0.32834409  0.42792870  0.13853945    -0.06000
Br212      Br  0.37818921  0.27248815  0.19586568    -0.00400
Br213      Br  0.47245399  0.45898776  0.12158218     0.00100
Br214      Br  0.35316382  0.35064404  0.06842087    -0.04300
Br215      Br  0.27478784  0.38126843  0.18502234     0.00200
Br216      Br  0.42363603  0.31288421  0.13736508    -0.03600
Br217      Br  0.42621931  0.41216186  0.17576716    -0.04500
Br218      Br  0.39564387  0.39752938  0.01342602    -0.00500
O219        O  0.43330045  0.46132084  0.52081713    -0.80600
O220        O  0.04773260  0.04160173  0.54222429    -0.80600
O221        O  0.03033401  0.41362593  0.52233749    -0.80600
O222        O  0.47903448  0.03823929  0.54943308    -0.80500
O223        O  0.04714634  0.46403011  0.54327847    -0.80700
O224        O  0.43127468  0.03202449  0.52431989    -0.80600
O225        O  0.02040790  0.08946487  0.52410055    -0.80600
O226        O  0.48039776  0.45585534  0.54779711    -0.80600
C227        C  0.44902351  0.45012179  0.54607646     1.09100
C228        C  0.04361070  0.07555671  0.54148993     1.09000
C229        C  0.05002859  0.43023581  0.54141315     1.09100
C230        C  0.44710519  0.03978172  0.55055993     1.09000
O231        O  0.44782419  0.03609092  0.95327033    -0.80600
O232        O  0.07014249  0.46737983  0.97349759    -0.80600
O233        O  0.46893602  0.42250397  0.98374764    -0.80600
O234        O  0.02118409  0.06384709  0.96186410    -0.80600
O235        O  0.06793890  0.03732076  0.97291922    -0.80600
O236        O  0.45146859  0.46503173  0.95093618    -0.80600
O237        O  0.46172233  0.07665105  0.98809190    -0.80500
O238        O  0.02351841  0.44386515  0.95984404    -0.80600
Co239      Co  0.44475067  0.49893058  0.48729136     1.51500
Co240      Co  0.05111298  0.00228347  0.00644506     1.51700
Co241      Co  0.50491947  0.45242454  0.50433744     1.51600
Co242      Co  0.50172203  0.04893257  0.00568936     1.51500
O243        O  0.49679207  0.50100344  0.49101134    -1.42500
C244        C  0.44686478  0.06770895  0.96170808     1.09000
C245        C  0.05405434  0.44820327  0.95416826     1.09100
C246        C  0.45364919  0.43256099  0.95747991     1.09100
C247        C  0.05215234  0.05971968  0.95591345     1.09000
O248        O  0.32795847  0.28286525  0.76866809    -0.80600
O249        O  0.19029112  0.23359418  0.78478692    -0.80600
O250        O  0.21770337  0.30766177  0.79709840    -0.80600
O251        O  0.28125100  0.17932792  0.77683307    -0.80500
O252        O  0.17943583  0.29462267  0.76045277    -0.80700
O253        O  0.30304109  0.22707389  0.79226460    -0.80600
O254        O  0.21361874  0.18408422  0.77340479    -0.80600
O255        O  0.28755104  0.30373527  0.80107285    -0.80600
C256        C  0.31880507  0.29868153  0.79498250     1.09100
C257        C  0.19288163  0.20154417  0.79051214     1.09000
C258        C  0.18749450  0.30969800  0.78726855     1.09100
C259        C  0.29926905  0.19522565  0.79718282     1.09000
O260        O  0.33655582  0.21947390  0.73200773    -0.80600
O261        O  0.21762416  0.27924945  0.69959454    -0.80600
O262        O  0.29288181  0.32243895  0.73159802    -0.80600
O263        O  0.21610353  0.20791585  0.70373630    -0.80600
O264        O  0.16830632  0.23437639  0.72054273    -0.80600
O265        O  0.29900424  0.27357646  0.70405243    -0.80600
O266        O  0.28981601  0.20260822  0.70714172    -0.80500
O267        O  0.22406446  0.32746443  0.72702374    -0.80600
Co268      Co  0.29868316  0.24699203  0.74734131     1.51500
Co269      Co  0.20625836  0.25379037  0.74189928     1.51700
Co270      Co  0.25522616  0.31130492  0.76409417     1.51600
Co271      Co  0.25039767  0.20109701  0.74213400     1.51500
O272        O  0.25199903  0.25747707  0.75840650    -1.42500
C273        C  0.32232487  0.20033641  0.71074189     1.09000
C274        C  0.21450704  0.31221239  0.70087889     1.09100
C275        C  0.30420488  0.30625644  0.70638122     1.09100
C276        C  0.18357437  0.21252252  0.70175970     1.09000
C277        C  0.16481955  0.19361183  0.67585646     0.00900
C278        C  0.16654165  0.15659677  0.67464233     0.03700
C279        C  0.14740918  0.13845506  0.65115592    -0.12300
C280        C  0.12914640  0.15722040  0.62663028     0.23000
C281        C  0.12981750  0.19416651  0.62615497    -0.12900
C282        C  0.14537904  0.21210639  0.65211858     0.04400
C283        C  0.10726700  0.13823205  0.60307256     0.26900
C284        C  0.12173473  0.11759299  0.57764951    -0.13400
C285        C  0.10093979  0.09626872  0.55831115     0.04900
C286        C  0.06527634  0.09810120  0.56202490    -0.09600
C287        C  0.05090080  0.12284519  0.58404727     0.05800
C288        C  0.07168688  0.14062197  0.60629379    -0.13900
Br289      Br  0.11011642  0.22016552  0.58945751    -0.06000
Br290      Br  0.19331769  0.13028989  0.70640306    -0.00400
Br291      Br  0.12154830  0.06686631  0.52482877     0.00100
Br292      Br  0.05121284  0.16720353  0.64202340    -0.04300
Br293      Br  0.13855060  0.26170679  0.65572683     0.00200
Br294      Br  0.14507368  0.08788435  0.65346583    -0.03600
Br295      Br  0.16988747  0.11963765  0.56861404    -0.04500
Br296      Br  0.00338463  0.13472976  0.58262812    -0.00500
C297        C  0.17087388  0.18428372  0.81601030     0.00900
C298        C  0.14118375  0.16698145  0.80636012     0.03700
C299        C  0.12111305  0.14896574  0.83027004    -0.12300
C300        C  0.13072317  0.14778941  0.86395600     0.23000
C301        C  0.15957494  0.16641045  0.87389549    -0.12900
C302        C  0.17920143  0.18521067  0.85001047     0.04400
C303        C  0.11104473  0.12566653  0.88826018     0.26900
C304        C  0.08533805  0.14053203  0.90838094    -0.13600
C305        C  0.06537989  0.11901903  0.92978786     0.04900
C306        C  0.07085448  0.08217982  0.93104476    -0.09600
C307        C  0.09692683  0.06754389  0.91082808     0.05800
C308        C  0.11678254  0.08919045  0.88960038    -0.13900
Br309      Br  0.17261018  0.16543415  0.92001504    -0.06000
Br310      Br  0.12711820  0.16880968  0.76059389    -0.00400
Br311      Br  0.03232381  0.14106507  0.95881229     0.00100
Br312      Br  0.15205187  0.06892466  0.86190771    -0.04300
Br313      Br  0.21725565  0.21269522  0.86363587     0.00200
Br314      Br  0.08041334  0.12541465  0.81701583    -0.03600
Br315      Br  0.07776027  0.19062127  0.90654986    -0.04500
Br316      Br  0.10545733  0.01763248  0.91111388    -0.00500
C317        C  0.07539232  0.41140069  0.56251011     0.00900
C318        C  0.10924424  0.42356350  0.56330178     0.03700
C319        C  0.13367955  0.40576568  0.58265306    -0.12300
C320        C  0.12455839  0.37634666  0.60239306     0.23000
C321        C  0.09075864  0.36433324  0.60191526    -0.12900
C322        C  0.06639165  0.38146937  0.58180344     0.04400
C323        C  0.14941479  0.36116635  0.62668260     0.26900
C324        C  0.17346203  0.33552402  0.61714682    -0.13600
C325        C  0.19678189  0.32173903  0.64059001     0.04900
C326        C  0.19518625  0.33213611  0.67438626    -0.09600
C327        C  0.17221377  0.35961637  0.68310881     0.05800
C328        C  0.14989639  0.37407302  0.65931241    -0.13900
Br329      Br  0.07731582  0.32535264  0.63009216    -0.06000
Br330      Br  0.12296493  0.46451711  0.53760920    -0.00400
Br331      Br  0.23120534  0.28896253  0.62599084     0.00100
Br332      Br  0.11933524  0.41192792  0.67125949    -0.04300
Br333      Br  0.02002910  0.36552958  0.58300324     0.00200
Br334      Br  0.17979205  0.42229577  0.58306113    -0.03600
Br335      Br  0.17345508  0.31839307  0.57218264    -0.04500
Br336      Br  0.16918773  0.37775695  0.72764253    -0.00500
C337        C  0.42824729  0.05502212  0.58035769     0.00900
C338        C  0.44605435  0.06846066  0.60798196     0.03700
C339        C  0.43001726  0.09227309  0.63000791    -0.12300
C340        C  0.39508501  0.09949665  0.62762307     0.23000
C341        C  0.37604147  0.08096834  0.60438378    -0.12900
C342        C  0.39233936  0.05950766  0.58043910     0.04400
C343        C  0.37809750  0.12628181  0.64946815     0.26900
C344        C  0.37103331  0.11879408  0.68344701    -0.13600
C345        C  0.35493471  0.14411210  0.70369578     0.04900
C346        C  0.34282942  0.17594572  0.68965292    -0.09600
C347        C  0.34909593  0.18310992  0.65544230     0.05800
C348        C  0.36789762  0.15905938  0.63586536    -0.13900
Br349      Br  0.32721144  0.08495375  0.60596865    -0.06000
Br350      Br  0.49121283  0.05228931  0.61852764    -0.00400
Br351      Br  0.34906901  0.13472144  0.75079376     0.00100
Br352      Br  0.38018247  0.17107211  0.59034689    -0.04300
Br353      Br  0.36394574  0.03556814  0.54928728     0.00200
Br354      Br  0.45620896  0.11604886  0.66296954    -0.03600
Br355      Br  0.38189532  0.07312958  0.70194242    -0.04500
Br356      Br  0.33182227  0.22564967  0.63516366    -0.00500
C357        C  0.43738259  0.40735650  0.93474230     0.00900
C358        C  0.40619654  0.41667527  0.91972929     0.03700
C359        C  0.39144087  0.39444406  0.89658165    -0.12300
C360        C  0.40669502  0.36207634  0.88897019     0.23000
C361        C  0.43717689  0.35200559  0.90432671    -0.12900
C362        C  0.45274183  0.37468085  0.92696335     0.04400
C363        C  0.38978717  0.33934035  0.86463028     0.26900
C364        C  0.36418307  0.31625119  0.87580263    -0.13600
C365        C  0.34157624  0.30205340  0.85290073     0.04900
C366        C  0.34447647  0.31096426  0.81862205    -0.09600
C367        C  0.37160208  0.33225598  0.80723973     0.05800
C368        C  0.39431034  0.34617639  0.83022453    -0.13900
Br369      Br  0.45762010  0.30735007  0.89377258    -0.06000
Br370      Br  0.38174626  0.45893809  0.93173587    -0.00400
Br371      Br  0.30674654  0.27030022  0.86872330     0.00100
Br372      Br  0.43012416  0.37708490  0.81511650    -0.04300
Br373      Br  0.49579979  0.36121056  0.94563326     0.00200
Br374      Br  0.35001325  0.40843908  0.87468254    -0.03600
Br375      Br  0.35892240  0.30596334  0.92286475    -0.04500
Br376      Br  0.37586681  0.34564921  0.76073955    -0.00500
C377        C  0.31795547  0.17740865  0.82496449     0.00900
C378        C  0.34964246  0.19105736  0.83497052     0.03700
C379        C  0.36670229  0.17631344  0.86226511    -0.12300
C380        C  0.35526878  0.14493340  0.87701784     0.23000
C381        C  0.32469913  0.13004996  0.86653915    -0.12900
C382        C  0.30535457  0.14692039  0.84148948     0.04400
C383        C  0.37850055  0.12552232  0.89962601     0.26900
C384        C  0.40414065  0.10439117  0.88546072    -0.13600
C385        C  0.42885447  0.08884697  0.90577431     0.04900
C386        C  0.42699519  0.09243536  0.94077705    -0.09600
C387        C  0.40215452  0.11484821  0.95492353     0.05800
C388        C  0.37811892  0.13159575  0.93423724    -0.13900
Br389      Br  0.31022876  0.08586908  0.88580731    -0.06000
Br390      Br  0.37368614  0.22624625  0.80896873    -0.00400
Br391      Br  0.46642226  0.06395106  0.88527462     0.00100
Br392      Br  0.34463113  0.16295096  0.95299622    -0.04300
Br393      Br  0.26192856  0.12777840  0.83030803     0.00200
Br394      Br  0.40715072  0.19813883  0.87876466    -0.03600
Br395      Br  0.40532180  0.09670013  0.83793536    -0.04500
Br396      Br  0.40015923  0.12208932  0.50243969    -0.00500
C397        C  0.07057448  0.42881634  0.92664195     0.00900
C398        C  0.09530179  0.40307489  0.93390234     0.03700
C399        C  0.10982082  0.38312190  0.90817983    -0.12300
C400        C  0.09990228  0.38881514  0.87494446     0.23000
C401        C  0.07412238  0.41335532  0.86766601    -0.12900
C402        C  0.05897590  0.43286076  0.89358652     0.04400
C403        C  0.11913113  0.37097332  0.84794044     0.26900
C404        C  0.15077991  0.38453037  0.83795550    -0.13600
C405        C  0.17266801  0.36483080  0.81750836     0.04900
C406        C  0.16280467  0.33135382  0.80640128    -0.09600
C407        C  0.13015514  0.31866143  0.81494467     0.05800
C408        C  0.10837872  0.33851979  0.83570082    -0.13900
Br409      Br  0.06011946  0.42043871  0.82216908    -0.06000
Br410      Br  0.10753686  0.39282266  0.97931914    -0.00400
Br411      Br  0.21621234  0.38447188  0.80500520     0.00100
Br412      Br  0.06440350  0.32077019  0.84880462    -0.04300
Br413      Br  0.02237196  0.46504936  0.88371777     0.00200
Br414      Br  0.14359138  0.34776111  0.91830267    -0.03600
Br415      Br  0.16461186  0.42977365  0.85384112    -0.04500
Br416      Br  0.11614516  0.27284070  0.80104608    -0.00500
C417        C  0.32653184  0.32590141  0.68232271     0.00900
C418        C  0.35930962  0.31304469  0.67383690     0.03700
C419        C  0.38078154  0.33240259  0.65221023    -0.12300
C420        C  0.37123630  0.36619918  0.64142585     0.23000
C421        C  0.33996734  0.38046597  0.65180029    -0.12900
C422        C  0.31747648  0.36037123  0.67176161     0.04400
C423        C  0.39301386  0.38607457  0.61743783     0.26900
C424        C  0.41849556  0.40852627  0.62856685    -0.13600
C425        C  0.43770194  0.42869863  0.60540004     0.04900
C426        C  0.43073772  0.42729153  0.57092048    -0.09600
C427        C  0.40546832  0.40372809  0.56002464     0.05800
C428        C  0.38707724  0.38314886  0.58323078    -0.13900
Br429      Br  0.32834380  0.42792847  0.63853927    -0.06000
Br430      Br  0.37818917  0.27248816  0.69586575    -0.00400
Br431      Br  0.47245395  0.45898775  0.62158227     0.00100
Br432      Br  0.35316378  0.35064403  0.56842094    -0.04300
Br433      Br  0.27478777  0.38126819  0.68502218     0.00200
Br434      Br  0.42363600  0.31288444  0.63736517    -0.03600
Br435      Br  0.42621926  0.41216185  0.67576724    -0.04500
Br436      Br  0.39564383  0.39752939  0.51342609    -0.00500
O437        O  0.43330039  0.96132093  0.02081698    -0.80600
O438        O  0.04773260  0.54160171  0.04222434    -0.80600
O439        O  0.03033395  0.91362601  0.02233770    -0.80600
O440        O  0.47903452  0.53823898  0.04943324    -0.80500
O441        O  0.04714638  0.96403023  0.04327847    -0.80700
O442        O  0.43127465  0.53202427  0.02432013    -0.80600
O443        O  0.02040769  0.58946491  0.02410097    -0.80600
O444        O  0.48039761  0.95585562  0.04779713    -0.80600
C445        C  0.44902345  0.95012200  0.04607638     1.09100
C446        C  0.04361066  0.57555668  0.04149015     1.09000
C447        C  0.05002860  0.93023589  0.04141326     1.09100
C448        C  0.44710520  0.53978143  0.05056013     1.09000
O449        O  0.44782425  0.53609080  0.45327050    -0.80600
O450        O  0.07014243  0.96737976  0.47349770    -0.80600
O451        O  0.46893602  0.92250405  0.48374780    -0.80600
O452        O  0.02118424  0.56384714  0.46186421    -0.80600
O453        O  0.06793898  0.53732071  0.47291936    -0.80600
O454        O  0.45146863  0.96503170  0.45093617    -0.80600
O455        O  0.46172234  0.57665092  0.48809207    -0.80500
O456        O  0.02351846  0.94386468  0.45984434    -0.80600
Co457      Co  0.44475064  0.99893068  0.98729123     1.51500
Co458      Co  0.05111296  0.50228343  0.50644514     1.51700
Co459      Co  0.50491946  0.95242472  0.00433752     1.51600
Co460      Co  0.50172202  0.54893240  0.50568946     1.51500
O461        O  0.49679207  0.00100361  0.99101126    -1.42500
C462        C  0.44686472  0.56770872  0.46170821     1.09000
C463        C  0.05405421  0.94820300  0.45416841     1.09100
C464        C  0.45364925  0.93256085  0.45748009     1.09100
C465        C  0.05215241  0.55971973  0.45591359     1.09000
O466        O  0.32795857  0.78286513  0.26866827    -0.80600
O467        O  0.19029116  0.73359417  0.28478706    -0.80600
O468        O  0.21770352  0.80766176  0.29709853    -0.80600
O469        O  0.28125123  0.67932786  0.27683303    -0.80500
O470        O  0.17943591  0.79462268  0.26045294    -0.80700
O471        O  0.30304127  0.72707377  0.29226470    -0.80600
O472        O  0.21361890  0.68408426  0.27340488    -0.80600
O473        O  0.28755115  0.80373520  0.30107301    -0.80600
C474        C  0.31880528  0.79868134  0.29498260     1.09100
C475        C  0.19288182  0.70154414  0.29051227     1.09000
C476        C  0.18749456  0.80969798  0.28726868     1.09100
C477        C  0.29926913  0.69522540  0.29718287     1.09000
O478        O  0.33655603  0.71947384  0.23200787    -0.80600
O479        O  0.21762428  0.77924949  0.19959468    -0.80600
O480        O  0.29288201  0.82243895  0.23159822    -0.80600
O481        O  0.21610367  0.70791586  0.20373635    -0.80600
O482        O  0.16830641  0.73437641  0.22054276    -0.80600
O483        O  0.29900443  0.77357646  0.20405259    -0.80600
O484        O  0.28981628  0.70260825  0.20714171    -0.80500
O485        O  0.22406467  0.82746445  0.22702389    -0.80600
Co486      Co  0.29868329  0.74699188  0.24734141     1.51500
Co487      Co  0.20625842  0.75379038  0.24189940     1.51700
Co488      Co  0.25522635  0.81130490  0.26409432     1.51600
Co489      Co  0.25039787  0.70109700  0.24213398     1.51500
O490        O  0.25199916  0.75747704  0.25840656    -1.42500
C491        C  0.32232514  0.70033640  0.21074196     1.09000
C492        C  0.21450715  0.81221240  0.20087900     1.09100
C493        C  0.30420500  0.80625642  0.20638137     1.09100
C494        C  0.18357445  0.71252252  0.20175973     1.09000
C495        C  0.16481970  0.69361174  0.17585659     0.00900
C496        C  0.16654174  0.65659664  0.17464262     0.03700
C497        C  0.14740928  0.63845487  0.15115625    -0.12300
C498        C  0.12914649  0.65722016  0.12663052     0.23000
C499        C  0.12981777  0.69416630  0.12615503    -0.12900
C500        C  0.14537930  0.71210625  0.15211856     0.04400
C501        C  0.10726710  0.63823180  0.10307284     0.26900
C502        C  0.12173483  0.61759263  0.07764984    -0.13400
C503        C  0.10093983  0.59626847  0.05831145     0.04900
C504        C  0.06527634  0.59810114  0.06202509    -0.09600
C505        C  0.05090086  0.62284519  0.08404744     0.05800
C506        C  0.07168695  0.64062191  0.10629396    -0.13900
Br507      Br  0.11011693  0.72016525  0.08945741    -0.06000
Br508      Br  0.19331765  0.63028990  0.20640368    -0.00400
Br509      Br  0.12154830  0.56686628  0.02482893     0.00100
Br510      Br  0.05121287  0.66720352  0.14202355    -0.04300
Br511      Br  0.13855110  0.76170675  0.15572672     0.00200
Br512      Br  0.14507369  0.58788412  0.15346625    -0.03600
Br513      Br  0.16988768  0.61963711  0.06861446    -0.04500
Br514      Br  0.00338465  0.63472974  0.08262853    -0.00500
C515        C  0.17087411  0.68428366  0.31601050     0.00900
C516        C  0.14118368  0.66698187  0.30636040     0.03700
C517        C  0.12111307  0.64896607  0.33027035    -0.12300
C518        C  0.13072347  0.64778933  0.36395623     0.23000
C519        C  0.15957553  0.66640994  0.37389567    -0.12900
C520        C  0.17920206  0.68521003  0.35001058     0.04400
C521        C  0.11104505  0.62566644  0.38826040     0.26900
C522        C  0.08533876  0.64053203  0.40838153    -0.13600
C523        C  0.06538052  0.61901912  0.42978844     0.04900
C524        C  0.07085471  0.58217982  0.43104494    -0.09600
C525        C  0.09692669  0.56754383  0.41082793     0.05800
C526        C  0.11678252  0.58919029  0.38960022    -0.13900
Br527      Br  0.17261118  0.66543334  0.42001517    -0.06000
Br528      Br  0.12711769  0.66881072  0.26059430    -0.00400
Br529      Br  0.03232482  0.64106530  0.45881319     0.00100
Br530      Br  0.15205136  0.56892441  0.36190690    -0.04300
Br531      Br  0.21725694  0.71269365  0.36363579     0.00200
Br532      Br  0.08041308  0.62541543  0.31701624    -0.03600
Br533      Br  0.07776128  0.69062128  0.40655077    -0.04500
Br534      Br  0.10545660  0.51763242  0.41111330    -0.00500
C535        C  0.07539239  0.91140087  0.06251028     0.00900
C536        C  0.10924434  0.92356367  0.06330180     0.03700
C537        C  0.13367972  0.90576597  0.08265312    -0.12300
C538        C  0.12455858  0.87634701  0.10239326     0.23000
C539        C  0.09075880  0.86433362  0.10191565    -0.12900
C540        C  0.06639174  0.88146966  0.08180383     0.04400
C541        C  0.14941499  0.86116669  0.12668274     0.26900
C542        C  0.17346211  0.83552425  0.11714690    -0.13600
C543        C  0.19678199  0.82173919  0.14059007     0.04900
C544        C  0.19518634  0.83213621  0.17438642    -0.09600
C545        C  0.17221390  0.85961648  0.18310900     0.05800
C546        C  0.14989665  0.87407334  0.15931259    -0.13900
Br547      Br  0.07731609  0.82535291  0.13009256    -0.06000
Br548      Br  0.12296495  0.96451711  0.03760887    -0.00400
Br549      Br  0.23120533  0.78896255  0.12599078     0.00100
Br550      Br  0.11933600  0.91192869  0.17125965    -0.04300
Br551      Br  0.02002914  0.86552985  0.08300390     0.00200
Br552      Br  0.17979229  0.92229603  0.08306104    -0.03600
Br553      Br  0.17345508  0.81839334  0.07218260    -0.04500
Br554      Br  0.16918772  0.87775669  0.22764293    -0.00500
C555        C  0.42824738  0.55502177  0.08035796     0.00900
C556        C  0.44605447  0.56846045  0.10798210     0.03700
C557        C  0.43001738  0.59227287  0.13000806    -0.12300
C558        C  0.39508509  0.59949624  0.12762333     0.23000
C559        C  0.37604151  0.58096767  0.10438425    -0.12900
C560        C  0.39233942  0.55950696  0.08043962     0.04400
C561        C  0.37809755  0.62628148  0.14946830     0.26900
C562        C  0.37103353  0.61879392  0.18344722    -0.13600
C563        C  0.35493500  0.64411204  0.20369594     0.04900
C564        C  0.34282969  0.67594563  0.18965303    -0.09600
C565        C  0.34909601  0.68310965  0.15544235     0.05800
C566        C  0.36789753  0.65905895  0.13586540    -0.13900
Br567      Br  0.32721145  0.58495296  0.10596908    -0.06000
Br568      Br  0.49121287  0.55228904  0.11852780    -0.00400
Br569      Br  0.34906952  0.63472145  0.25079393     0.00100
Br570      Br  0.38018198  0.67107133  0.09034679    -0.04300
Br571      Br  0.36394574  0.53556678  0.04928840     0.00200
Br572      Br  0.45620922  0.61604886  0.16296946    -0.03600
Br573      Br  0.38189582  0.57312957  0.20194283    -0.04500
Br574      Br  0.33182278  0.72564965  0.13516381    -0.00500
C575        C  0.43738259  0.90735644  0.43474251     0.00900
C576        C  0.40619653  0.91667510  0.41972955     0.03700
C577        C  0.39144076  0.89444376  0.39658209    -0.12300
C578        C  0.40669499  0.86207606  0.38897060     0.23000
C579        C  0.43717691  0.85200541  0.40432710    -0.12900
C580        C  0.45274190  0.87468070  0.42696370     0.04400
C581        C  0.38978716  0.83934012  0.36463063     0.26900
C582        C  0.36418291  0.81625107  0.37580295    -0.13600
C583        C  0.34157623  0.80205323  0.35290092     0.04900
C584        C  0.34447653  0.81096407  0.31862230    -0.09600
C585        C  0.37160213  0.83225591  0.30723998     0.05800
C586        C  0.39431040  0.84617619  0.33022487    -0.13900
Br587      Br  0.45762035  0.80735006  0.39377276    -0.06000
Br588      Br  0.38174628  0.95893805  0.43173602    -0.00400
Br589      Br  0.30674630  0.77030021  0.36872325     0.00100
Br590      Br  0.43012439  0.87708461  0.31511692    -0.04300
Br591      Br  0.49579999  0.86121056  0.44563365     0.00200
Br592      Br  0.35001298  0.90843855  0.37468319    -0.03600
Br593      Br  0.35892213  0.80596333  0.42286512    -0.04500
Br594      Br  0.37586682  0.84564920  0.26073976    -0.00500
C595        C  0.31795545  0.67740848  0.32496464     0.00900
C596        C  0.34964226  0.69105722  0.33497099     0.03700
C597        C  0.36670197  0.67631324  0.36226561    -0.12300
C598        C  0.35526849  0.64493310  0.37701815     0.23000
C599        C  0.32469893  0.63004968  0.36653924    -0.12900
C600        C  0.30535448  0.64692006  0.34148946     0.04400
C601        C  0.37850025  0.62552194  0.39962628     0.26900
C602        C  0.40414044  0.60439095  0.38546099    -0.13600
C603        C  0.42885431  0.58884680  0.40577452     0.04900
C604        C  0.42699497  0.59243508  0.44077733    -0.09600
C605        C  0.40215414  0.61484763  0.45492381     0.05800
C606        C  0.37811850  0.63159518  0.43423758    -0.13900
Br607      Br  0.31022851  0.58586879  0.38580723    -0.06000
Br608      Br  0.37368613  0.72624622  0.30896941    -0.00400
Br609      Br  0.46642228  0.56395130  0.38527479     0.00100
Br610      Br  0.34463061  0.66295017  0.45299664    -0.04300
Br611      Br  0.26192860  0.62777789  0.33030769     0.00200
Br612      Br  0.40715025  0.69813857  0.37876534    -0.03600
Br613      Br  0.40532181  0.59670037  0.33793554    -0.04500
Br614      Br  0.40015871  0.62208852  0.00244030    -0.00500
C615        C  0.07057448  0.92881619  0.42664214     0.00900
C616        C  0.09530151  0.90307449  0.43390248     0.03700
C617        C  0.10982043  0.88312150  0.40817995    -0.12300
C618        C  0.09990205  0.88881492  0.37494455     0.23000
C619        C  0.07412234  0.91335531  0.36766615    -0.12900
C620        C  0.05897594  0.93286079  0.39358666     0.04400
C621        C  0.11913099  0.87097321  0.34794054     0.26900
C622        C  0.15077988  0.88453022  0.33795586    -0.13600
C623        C  0.17266806  0.86483066  0.31750880     0.04900
C624        C  0.16280476  0.83135379  0.30640148    -0.09600
C625        C  0.13015511  0.81866141  0.31494461     0.05800
C626        C  0.10837863  0.83851975  0.33570072    -0.13900
Br627      Br  0.06011947  0.92043896  0.32216924    -0.06000
Br628      Br  0.10753635  0.89282188  0.47931930    -0.00400
Br629      Br  0.21621259  0.88447160  0.30500611     0.00100
Br630      Br  0.06440327  0.82077020  0.34880404    -0.04300
Br631      Br  0.02237222  0.96504962  0.38371794     0.00200
Br632      Br  0.14359068  0.84776053  0.41830283    -0.03600
Br633      Br  0.16461186  0.92977338  0.35384178    -0.04500
Br634      Br  0.11614517  0.77284072  0.30104576    -0.00500
C635        C  0.32653185  0.82590155  0.18232280     0.00900
C636        C  0.35930957  0.81304481  0.17383681     0.03700
C637        C  0.38078141  0.83240271  0.15221003    -0.12300
C638        C  0.37123618  0.86619936  0.14142580     0.23000
C639        C  0.33996726  0.88046619  0.15180045    -0.12900
C640        C  0.31747646  0.86037139  0.17176180     0.04400
C641        C  0.39301367  0.88607482  0.11743773     0.26900
C642        C  0.41849521  0.90852674  0.12856677    -0.13600
C643        C  0.43770169  0.92869900  0.10539995     0.04900
C644        C  0.43073756  0.92729172  0.07092036    -0.09600
C645        C  0.40546831  0.90372816  0.06002446     0.05800
C646        C  0.38707722  0.88314891  0.08323065    -0.13900
Br647      Br  0.32834357  0.92792871  0.13853944    -0.06000
Br648      Br  0.37818920  0.77248839  0.19586568    -0.00400
Br649      Br  0.47245368  0.95898825  0.12158218     0.00100
Br650      Br  0.35316380  0.85064403  0.06842085    -0.04300
Br651      Br  0.27478779  0.88126842  0.18502259     0.00200
Br652      Br  0.42363575  0.81288445  0.13736460    -0.03600
Br653      Br  0.42621900  0.91216237  0.17576715    -0.04500
Br654      Br  0.39564383  0.89752963  0.01342580    -0.00500
O655        O  0.43330042  0.96132095  0.52081705    -0.80600
O656        O  0.04773253  0.54160166  0.54222444    -0.80600
O657        O  0.03033393  0.91362590  0.52233782    -0.80600
O658        O  0.47903453  0.53823901  0.54943321    -0.80500
O659        O  0.04714646  0.96403018  0.54327851    -0.80700
O660        O  0.43127466  0.53202431  0.52432012    -0.80600
O661        O  0.02040788  0.58946492  0.52410086    -0.80600
O662        O  0.48039765  0.95585561  0.54779721    -0.80600
C663        C  0.44902342  0.95012200  0.54607644     1.09100
C664        C  0.04361068  0.57555665  0.54149019     1.09000
C665        C  0.05002860  0.93023582  0.54141334     1.09100
C666        C  0.44710514  0.53978147  0.55056008     1.09000
O667        O  0.44782418  0.53609082  0.95327044    -0.80600
O668        O  0.07014244  0.96737985  0.97349758    -0.80600
O669        O  0.46893605  0.92250406  0.98374769    -0.80600
O670        O  0.02118417  0.56384735  0.96186431    -0.80600
O671        O  0.06793890  0.53732076  0.97291924    -0.80600
O672        O  0.45146856  0.96503174  0.95093617    -0.80600
O673        O  0.46172225  0.57665087  0.98809209    -0.80500
O674        O  0.02351841  0.94386491  0.95984427    -0.80600
Co675      Co  0.44475067  0.99893064  0.48729121     1.51500
Co676      Co  0.05111297  0.50228346  0.00644505     1.51700
Co677      Co  0.50491945  0.95242470  0.50433759     1.51600
Co678      Co  0.50172201  0.54893242  0.00568946     1.51500
O679        O  0.49679206  0.00100356  0.49101131    -1.42500
C680        C  0.44686460  0.56770873  0.96170824     1.09000
C681        C  0.05405418  0.94820319  0.95416834     1.09100
C682        C  0.45364920  0.93256100  0.95747994     1.09100
C683        C  0.05215235  0.55971987  0.95591363     1.09000
O684        O  0.32795855  0.78286511  0.76866829    -0.80600
O685        O  0.19029110  0.73359416  0.78478695    -0.80600
O686        O  0.21770348  0.80766175  0.79709860    -0.80600
O687        O  0.28125116  0.67932785  0.77683309    -0.80500
O688        O  0.17943591  0.79462264  0.76045296    -0.80700
O689        O  0.30304123  0.72707378  0.79226467    -0.80600
O690        O  0.21361890  0.68408424  0.77340495    -0.80600
O691        O  0.28755117  0.80373520  0.80107309    -0.80600
C692        C  0.31880524  0.79868132  0.79498268     1.09100
C693        C  0.19288178  0.70154415  0.79051229     1.09000
C694        C  0.18749453  0.80969797  0.78726872     1.09100
C695        C  0.29926909  0.69522541  0.79718291     1.09000
O696        O  0.33655600  0.71947388  0.73200790    -0.80600
O697        O  0.21762425  0.77924951  0.69959466    -0.80600
O698        O  0.29288199  0.82243891  0.73159829    -0.80600
O699        O  0.21610366  0.70791586  0.70373645    -0.80600
O700        O  0.16830636  0.73437642  0.72054276    -0.80600
O701        O  0.29900424  0.77357649  0.70405250    -0.80600
O702        O  0.28981624  0.70260824  0.70714179    -0.80500
O703        O  0.22406462  0.82746443  0.72702395    -0.80600
Co704      Co  0.29868322  0.74699189  0.74734136     1.51500
Co705      Co  0.20625839  0.75379037  0.74189935     1.51700
Co706      Co  0.25522633  0.81130489  0.76409440     1.51600
Co707      Co  0.25039783  0.70109699  0.74213407     1.51500
O708        O  0.25199912  0.75747704  0.75840658    -1.42500
C709        C  0.32232509  0.70033642  0.71074202     1.09000
C710        C  0.21450714  0.81221242  0.70087908     1.09100
C711        C  0.30420492  0.80625644  0.70638140     1.09100
C712        C  0.18357440  0.71252251  0.70175978     1.09000
C713        C  0.16481974  0.69361173  0.67585663     0.00900
C714        C  0.16654172  0.65659666  0.67464267     0.03700
C715        C  0.14740932  0.63845485  0.65115632    -0.12300
C716        C  0.12914664  0.65722008  0.62663049     0.23000
C717        C  0.12981789  0.69416620  0.62615497    -0.12900
C718        C  0.14537931  0.71210617  0.65211854     0.04400
C719        C  0.10726721  0.63823167  0.60307286     0.26900
C720        C  0.12173487  0.61759251  0.57764984    -0.13400
C721        C  0.10093984  0.59626842  0.55831141     0.04900
C722        C  0.06527638  0.59810103  0.56202518    -0.09600
C723        C  0.05090090  0.62284503  0.58404757     0.05800
C724        C  0.07168706  0.64062182  0.60629403    -0.13900
Br725      Br  0.11011691  0.72016500  0.58945727    -0.06000
Br726      Br  0.19331765  0.63028988  0.70640356    -0.00400
Br727      Br  0.12154827  0.56686603  0.52482901     0.00100
Br728      Br  0.05121308  0.66720351  0.64202363    -0.04300
Br729      Br  0.13855106  0.76170656  0.65572656     0.00200
Br730      Br  0.14507389  0.58788411  0.65346633    -0.03600
Br731      Br  0.16988768  0.61963684  0.56861453    -0.04500
Br732      Br  0.00338463  0.63472948  0.58262862    -0.00500
C733        C  0.17087406  0.68428373  0.81601051     0.00900
C734        C  0.14118363  0.66698190  0.80636044     0.03700
C735        C  0.12111293  0.64896618  0.83027037    -0.12300
C736        C  0.13072334  0.64778950  0.86395626     0.23000
C737        C  0.15957539  0.66641011  0.87389569    -0.12900
C738        C  0.17920194  0.68521019  0.85001063     0.04400
C739        C  0.11104496  0.62566661  0.88826045     0.26900
C740        C  0.08533868  0.64053222  0.90838161    -0.13600
C741        C  0.06538042  0.61901923  0.92978841     0.04900
C742        C  0.07085459  0.58217997  0.93104495    -0.09600
C743        C  0.09692662  0.56754395  0.91082801     0.05800
C744        C  0.11678242  0.58919046  0.88960032    -0.13900
Br745      Br  0.17261091  0.66543336  0.92001524    -0.06000
Br746      Br  0.12711765  0.66881071  0.76059437    -0.00400
Br747      Br  0.03232498  0.64106533  0.95881332     0.00100
Br748      Br  0.15205109  0.56892442  0.86190697    -0.04300
Br749      Br  0.21725667  0.71269393  0.86363588     0.00200
Br750      Br  0.08041284  0.62541546  0.81701633    -0.03600
Br751      Br  0.07776125  0.69062152  0.90655109    -0.04500
Br752      Br  0.10545655  0.51763247  0.91111339    -0.00500
C753        C  0.07539234  0.91140083  0.56251036     0.00900
C754        C  0.10924429  0.92356353  0.56330185     0.03700
C755        C  0.13367965  0.90576586  0.58265319    -0.12300
C756        C  0.12455846  0.87634696  0.60239336     0.23000
C757        C  0.09075867  0.86433366  0.60191575    -0.12900
C758        C  0.06639165  0.88146970  0.58180393     0.04400
C759        C  0.14941491  0.86116664  0.62668282     0.26900
C760        C  0.17346204  0.83552425  0.61714696    -0.13600
C761        C  0.19678192  0.82173922  0.64059014     0.04900
C762        C  0.19518633  0.83213624  0.67438643    -0.09600
C763        C  0.17221396  0.85961656  0.68310900     0.05800
C764        C  0.14989661  0.87407332  0.65931263    -0.13900
Br765      Br  0.07731580  0.82535313  0.63009268    -0.06000
Br766      Br  0.12296493  0.96451687  0.53760894    -0.00400
Br767      Br  0.23120532  0.78896278  0.62599085     0.00100
Br768      Br  0.11933571  0.91192843  0.67125974    -0.04300
Br769      Br  0.02002904  0.86553008  0.58300399     0.00200
Br770      Br  0.17979226  0.92229577  0.58306089    -0.03600
Br771      Br  0.17345504  0.81839334  0.57218268    -0.04500
Br772      Br  0.16918794  0.87775695  0.72764279    -0.00500
C773        C  0.42824737  0.55502180  0.58035796     0.00900
C774        C  0.44605439  0.56846042  0.60798212     0.03700
C775        C  0.43001733  0.59227286  0.63000811    -0.12300
C776        C  0.39508506  0.59949639  0.62762330     0.23000
C777        C  0.37604149  0.58096792  0.60438414    -0.12900
C778        C  0.39233937  0.55950711  0.58043955     0.04400
C779        C  0.37809754  0.62628165  0.64946829     0.26900
C780        C  0.37103352  0.61879406  0.68344722    -0.13600
C781        C  0.35493501  0.64411216  0.70369598     0.04900
C782        C  0.34282969  0.67594572  0.68965310    -0.09600
C783        C  0.34909612  0.68310984  0.65544244     0.05800
C784        C  0.36789759  0.65905915  0.63586546    -0.13900
Br785      Br  0.32721142  0.58495347  0.60596890    -0.06000
Br786      Br  0.49121284  0.55228904  0.61852766    -0.00400
Br787      Br  0.34906948  0.63472145  0.75079400     0.00100
Br788      Br  0.38018219  0.67107160  0.59034687    -0.04300
Br789      Br  0.36394570  0.53556705  0.54928825     0.00200
Br790      Br  0.45620918  0.61604885  0.66296953    -0.03600
Br791      Br  0.38189553  0.57312959  0.70194267    -0.04500
Br792      Br  0.33182273  0.72564968  0.63516388    -0.00500
C793        C  0.43738264  0.90735645  0.93474238     0.00900
C794        C  0.40619654  0.91667514  0.91972939     0.03700
C795        C  0.39144086  0.89444376  0.89658190    -0.12300
C796        C  0.40669507  0.86207606  0.88897045     0.23000
C797        C  0.43717695  0.85200542  0.90432701    -0.12900
C798        C  0.45274190  0.87468075  0.92696360     0.04400
C799        C  0.38978728  0.83934000  0.86463057     0.26900
C800        C  0.36418308  0.81625093  0.87580296    -0.13600
C801        C  0.34157628  0.80205317  0.85290099     0.04900
C802        C  0.34447656  0.81096403  0.81862235    -0.09600
C803        C  0.37160222  0.83225575  0.80723998     0.05800
C804        C  0.39431057  0.84617596  0.83022481    -0.13900
Br805      Br  0.45762032  0.80735004  0.89377283    -0.06000
Br806      Br  0.38174624  0.95893805  0.93173586    -0.00400
Br807      Br  0.30674651  0.77029995  0.86872333     0.00100
Br808      Br  0.43012460  0.87708434  0.81511676    -0.04300
Br809      Br  0.49579994  0.86121055  0.94563372     0.00200
Br810      Br  0.35001317  0.90843855  0.87468301    -0.03600
Br811      Br  0.35892235  0.80596332  0.92286520    -0.04500
Br812      Br  0.37586701  0.84564918  0.76073983    -0.00500
C813        C  0.31795543  0.67740847  0.82496461     0.00900
C814        C  0.34964229  0.69105720  0.83497088     0.03700
C815        C  0.36670199  0.67631330  0.86226555    -0.12300
C816        C  0.35526848  0.64493322  0.87701819     0.23000
C817        C  0.32469892  0.63004975  0.86653931    -0.12900
C818        C  0.30535446  0.64692008  0.84148950     0.04400
C819        C  0.37850028  0.62552210  0.89962633     0.26900
C820        C  0.40414055  0.60439118  0.88546102    -0.13600
C821        C  0.42885440  0.58884697  0.90577456     0.04900
C822        C  0.42699491  0.59243511  0.94077739    -0.09600
C823        C  0.40215409  0.61484768  0.95492390     0.05800
C824        C  0.37811851  0.63159529  0.93423764    -0.13900
Br825      Br  0.31022871  0.58586878  0.88580731    -0.06000
Br826      Br  0.37368609  0.72624621  0.80896925    -0.00400
Br827      Br  0.46642245  0.56395133  0.88527489     0.00100
Br828      Br  0.34463057  0.66295017  0.95299673    -0.04300
Br829      Br  0.26192856  0.62777788  0.83030777     0.00200
Br830      Br  0.40715018  0.69813882  0.87876541    -0.03600
Br831      Br  0.40532177  0.59670037  0.83793561    -0.04500
Br832      Br  0.40015869  0.62208852  0.50244016    -0.00500
C833        C  0.07057438  0.92881631  0.92664200     0.00900
C834        C  0.09530147  0.90307469  0.93390236     0.03700
C835        C  0.10982046  0.88312171  0.90817981    -0.12300
C836        C  0.09990204  0.88881513  0.87494444     0.23000
C837        C  0.07412232  0.91335553  0.86766601    -0.12900
C838        C  0.05897588  0.93286099  0.89358655     0.04400
C839        C  0.11913096  0.87097334  0.84794040     0.26900
C840        C  0.15077986  0.88453032  0.83795569    -0.13600
C841        C  0.17266802  0.86483071  0.81750866     0.04900
C842        C  0.16280473  0.83135380  0.80640142    -0.09600
C843        C  0.13015510  0.81866145  0.81494464     0.05800
C844        C  0.10837859  0.83851986  0.83570067    -0.13900
Br845      Br  0.06011944  0.92043922  0.82216909    -0.06000
Br846      Br  0.10753633  0.89282213  0.97931916    -0.00400
Br847      Br  0.21621255  0.88447160  0.80500595     0.00100
Br848      Br  0.06440322  0.82077043  0.84880412    -0.04300
Br849      Br  0.02237219  0.96504987  0.88371779     0.00200
Br850      Br  0.14359087  0.84776082  0.91830266    -0.03600
Br851      Br  0.16461181  0.92977362  0.85384137    -0.04500
Br852      Br  0.11614535  0.77284067  0.80104608    -0.00500
C853        C  0.32653181  0.82590157  0.68232287     0.00900
C854        C  0.35930953  0.81304483  0.67383689     0.03700
C855        C  0.38078135  0.83240271  0.65221007    -0.12300
C856        C  0.37123606  0.86619932  0.64142573     0.23000
C857        C  0.33996715  0.88046615  0.65180036    -0.12900
C858        C  0.31747640  0.86037141  0.67176184     0.04400
C859        C  0.39301359  0.88607479  0.61743773     0.26900
C860        C  0.41849512  0.90852671  0.62856680    -0.13600
C861        C  0.43770164  0.92869898  0.60540002     0.04900
C862        C  0.43073756  0.92729173  0.57092043    -0.09600
C863        C  0.40546828  0.90372818  0.56002451     0.05800
C864        C  0.38707718  0.88314890  0.58323063    -0.13900
Br865      Br  0.32834352  0.92792870  0.63853928    -0.06000
Br866      Br  0.37818916  0.77248839  0.69586576    -0.00400
Br867      Br  0.47245364  0.95898824  0.62158227     0.00100
Br868      Br  0.35316377  0.85064404  0.56842070    -0.04300
Br869      Br  0.27478776  0.88126842  0.68502267     0.00200
Br870      Br  0.42363571  0.81288445  0.63736469    -0.03600
Br871      Br  0.42621871  0.91216238  0.67576722    -0.04500
Br872      Br  0.39564380  0.89752963  0.51342588    -0.00500
O873        O  0.93330041  0.46132089  0.02081702    -0.80600
O874        O  0.54773268  0.04160179  0.04222434    -0.80600
O875        O  0.53033414  0.41362590  0.02233741    -0.80600
O876        O  0.97903450  0.03823909  0.04943313    -0.80500
O877        O  0.54714644  0.46403011  0.04327839    -0.80700
O878        O  0.93127465  0.03202433  0.02432003    -0.80600
O879        O  0.52040781  0.08946493  0.02410074    -0.80600
O880        O  0.98039769  0.45585541  0.04779702    -0.80600
C881        C  0.94902359  0.45012183  0.04607641     1.09100
C882        C  0.54361067  0.07555677  0.04149008     1.09000
C883        C  0.55002870  0.43023579  0.04141306     1.09100
C884        C  0.94710510  0.03978153  0.05055996     1.09000
O885        O  0.94782437  0.03609077  0.45327028    -0.80600
O886        O  0.57014249  0.46737968  0.47349767    -0.80600
O887        O  0.96893602  0.42250407  0.48374763    -0.80600
O888        O  0.52118423  0.06384709  0.46186411    -0.80600
O889        O  0.56793897  0.03732069  0.47291922    -0.80600
O890        O  0.95146857  0.46503176  0.45093612    -0.80600
O891        O  0.96172232  0.07665088  0.48809190    -0.80500
O892        O  0.52351845  0.44386492  0.45984417    -0.80600
Co893      Co  0.94475068  0.49893066  0.98729126     1.51500
Co894      Co  0.55111294  0.00228344  0.50644509     1.51700
Co895      Co  0.00491941  0.45242471  0.00433734     1.51600
Co896      Co  0.00172208  0.04893240  0.50568929     1.51500
O897        O  0.99679209  0.50100364  0.99101125    -1.42500
C898        C  0.94686476  0.06770877  0.46170812     1.09000
C899        C  0.55405427  0.44820303  0.45416828     1.09100
C900        C  0.95364919  0.43256102  0.45747999     1.09100
C901        C  0.55215238  0.05971968  0.45591350     1.09000
O902        O  0.82795853  0.28286527  0.26866806    -0.80600
O903        O  0.69029121  0.23359419  0.28478687    -0.80600
O904        O  0.71770351  0.30766182  0.29709838    -0.80600
O905        O  0.78125111  0.17932792  0.27683301    -0.80500
O906        O  0.67943588  0.29462265  0.26045282    -0.80700
O907        O  0.80304113  0.22707391  0.29226457    -0.80600
O908        O  0.71361879  0.18408422  0.27340467    -0.80600
O909        O  0.78755113  0.30373531  0.30107283    -0.80600
C910        C  0.81880520  0.29868152  0.29498242     1.09100
C911        C  0.69288172  0.20154413  0.29051209     1.09000
C912        C  0.68749457  0.30969796  0.28726856     1.09100
C913        C  0.79926907  0.19522565  0.29718283     1.09000
O914        O  0.83655590  0.21947388  0.23200781    -0.80600
O915        O  0.71762419  0.27924947  0.19959448    -0.80600
O916        O  0.79288192  0.32243898  0.23159797    -0.80600
O917        O  0.71610360  0.20791587  0.20373633    -0.80600
O918        O  0.66830630  0.23437639  0.22054268    -0.80600
O919        O  0.79900432  0.27357647  0.20405235    -0.80600
O920        O  0.78981614  0.20260828  0.20714171    -0.80500
O921        O  0.72406455  0.32746448  0.22702367    -0.80600
Co922      Co  0.79868319  0.24699203  0.24734125     1.51500
Co923      Co  0.70625836  0.25379038  0.24189922     1.51700
Co924      Co  0.75522628  0.31130504  0.26409413     1.51600
Co925      Co  0.75039777  0.20109703  0.24213395     1.51500
O926        O  0.75199906  0.25747716  0.25840642    -1.42500
C927        C  0.82232501  0.20033638  0.21074194     1.09000
C928        C  0.71450706  0.31221240  0.20087883     1.09100
C929        C  0.80420496  0.30625647  0.20638117     1.09100
C930        C  0.68357434  0.21252254  0.20175966     1.09000
C931        C  0.66481967  0.19361187  0.17585643     0.00900
C932        C  0.66654169  0.15659679  0.17464230     0.03700
C933        C  0.64740919  0.13845512  0.15115595    -0.12300
C934        C  0.62914634  0.15722045  0.12663030     0.23000
C935        C  0.62981755  0.19416658  0.12615494    -0.12900
C936        C  0.64537911  0.21210641  0.15211851     0.04400
C937        C  0.60726696  0.13823215  0.10307264     0.26900
C938        C  0.62173466  0.11759312  0.07764952    -0.13400
C939        C  0.60093973  0.09626892  0.05831117     0.04900
C940        C  0.56527627  0.09810134  0.06202495    -0.09600
C941        C  0.55090074  0.12284527  0.08404740     0.05800
C942        C  0.57168681  0.14062202  0.10629390    -0.13900
Br943      Br  0.61011634  0.22016553  0.08945744    -0.06000
Br944      Br  0.69331784  0.13028990  0.20640297    -0.00400
Br945      Br  0.62154822  0.06686681  0.02482866     0.00100
Br946      Br  0.55121277  0.16720325  0.14202378    -0.04300
Br947      Br  0.63855099  0.26170681  0.15572673     0.00200
Br948      Br  0.64507384  0.08788438  0.15346574    -0.03600
Br949      Br  0.66988738  0.11963791  0.06861395    -0.04500
Br950      Br  0.50338454  0.13472975  0.08262852    -0.00500
C951        C  0.67087398  0.18428370  0.31601025     0.00900
C952        C  0.64118383  0.16698141  0.30636006     0.03700
C953        C  0.62111317  0.14896568  0.33027001    -0.12300
C954        C  0.63072330  0.14778936  0.36395600     0.23000
C955        C  0.65957507  0.16641041  0.37389551    -0.12900
C956        C  0.67920154  0.18521058  0.35001045     0.04400
C957        C  0.61104490  0.12566647  0.38826021     0.26900
C958        C  0.58533816  0.14053194  0.40838087    -0.13600
C959        C  0.56537991  0.11901896  0.42978773     0.04900
C960        C  0.57085461  0.08217977  0.43104472    -0.09600
C961        C  0.59692701  0.06754385  0.41082818     0.05800
C962        C  0.61678275  0.08919042  0.38960048    -0.13900
Br963      Br  0.67261032  0.16543415  0.42001516    -0.06000
Br964      Br  0.62711813  0.16880969  0.26059382    -0.00400
Br965      Br  0.53232372  0.14106507  0.45881195     0.00100
Br966      Br  0.65205204  0.06892466  0.36190786    -0.04300
Br967      Br  0.71725582  0.21269497  0.36363579     0.00200
Br968      Br  0.58041352  0.12541441  0.31701575    -0.03600
Br969      Br  0.57776019  0.19062106  0.40654976    -0.04500
Br970      Br  0.60545773  0.01763246  0.41111406    -0.00500
C971        C  0.57539244  0.41140068  0.06251005     0.00900
C972        C  0.60924432  0.42356356  0.06330176     0.03700
C973        C  0.63367967  0.40576589  0.08265313    -0.12300
C974        C  0.62455854  0.37634673  0.10239299     0.23000
C975        C  0.59075881  0.36433322  0.10191515    -0.12900
C976        C  0.56639179  0.38146934  0.08180334     0.04400
C977        C  0.64941492  0.36116642  0.12668252     0.26900
C978        C  0.67346215  0.33552408  0.11714674    -0.13600
C979        C  0.69678198  0.32173910  0.14058995     0.04900
C980        C  0.69518623  0.33213611  0.17438624    -0.09600
C981        C  0.67221372  0.35961634  0.18310880     0.05800
C982        C  0.64989647  0.37407310  0.15931234    -0.13900
Br983      Br  0.57731600  0.32535239  0.13009182    -0.06000
Br984      Br  0.62296486  0.46451713  0.03760911    -0.00400
Br985      Br  0.73120552  0.28896278  0.12599076     0.00100
Br986      Br  0.61933542  0.41192816  0.17125939    -0.04300
Br987      Br  0.52002928  0.36552933  0.08300291     0.00200
Br988      Br  0.67979216  0.42229627  0.08306130    -0.03600
Br989      Br  0.67345524  0.31839308  0.07218256    -0.04500
Br990      Br  0.66918739  0.37775667  0.22764267    -0.00500
C991        C  0.92824737  0.05502197  0.08035783     0.00900
C992        C  0.94605442  0.06846062  0.10798198     0.03700
C993        C  0.93001730  0.09227304  0.13000798    -0.12300
C994        C  0.89508498  0.09949640  0.12762320     0.23000
C995        C  0.87604144  0.08096791  0.10438403    -0.12900
C996        C  0.89233935  0.05950723  0.08043936     0.04400
C997        C  0.87809743  0.12628158  0.14946819     0.26900
C998        C  0.87103340  0.11879399  0.18344709    -0.13600
C999        C  0.85493486  0.14411204  0.20369582     0.04900
C1000       C  0.84282950  0.17594565  0.18965297    -0.09600
C1001       C  0.84909586  0.18310974  0.15544228     0.05800
C1002       C  0.86789746  0.15905911  0.13586535    -0.13900
Br1003     Br  0.82721135  0.08495323  0.10596883    -0.06000
Br1004     Br  0.99121298  0.05228933  0.11852756    -0.00400
Br1005     Br  0.84906916  0.13472121  0.25079371     0.00100
Br1006     Br  0.88018213  0.17107160  0.09034680    -0.04300
Br1007     Br  0.86394565  0.03556733  0.04928791     0.00200
Br1008     Br  0.95620910  0.11604912  0.16296944    -0.03600
Br1009     Br  0.88189549  0.07312956  0.20194259    -0.04500
Br1010     Br  0.83182244  0.22564964  0.13516359    -0.00500
C1011       C  0.93738252  0.40735652  0.43474235     0.00900
C1012       C  0.90619647  0.41667528  0.41972944     0.03700
C1013       C  0.89144077  0.39444403  0.39658183    -0.12300
C1014       C  0.90669496  0.36207636  0.38897032     0.23000
C1015       C  0.93717687  0.35200567  0.40432675    -0.12900
C1016       C  0.95274184  0.37468092  0.42696342     0.04400
C1017       C  0.88978715  0.33934039  0.36463034     0.26900
C1018       C  0.86418307  0.31625121  0.37580269    -0.13600
C1019       C  0.84157625  0.30205348  0.35290071     0.04900
C1020       C  0.84447651  0.31096432  0.31862206    -0.09600
C1021       C  0.87160202  0.33225622  0.30723973     0.05800
C1022       C  0.89431024  0.34617660  0.33022461    -0.13900
Br1023     Br  0.95762026  0.30735032  0.39377249    -0.06000
Br1024     Br  0.88174617  0.45893809  0.43173604    -0.00400
Br1025     Br  0.80674643  0.27030047  0.36872323     0.00100
Br1026     Br  0.93012406  0.37708516  0.31511666    -0.04300
Br1027     Br  0.99579991  0.36121059  0.44563317     0.00200
Br1028     Br  0.85001312  0.40843907  0.37468293    -0.03600
Br1029     Br  0.85892254  0.30596333  0.42286487    -0.04500
Br1030     Br  0.87586672  0.34564947  0.26073950    -0.00500
C1031       C  0.81795543  0.17740865  0.32496454     0.00900
C1032       C  0.84964240  0.19105732  0.33497063     0.03700
C1033       C  0.86670227  0.17631328  0.36226516    -0.12300
C1034       C  0.85526871  0.14493328  0.37701789     0.23000
C1035       C  0.82469901  0.13004993  0.36653922    -0.12900
C1036       C  0.80535449  0.14692037  0.34148948     0.04400
C1037       C  0.87850045  0.12552211  0.39962609     0.26900
C1038       C  0.90414051  0.10439092  0.38546082    -0.13600
C1039       C  0.92885440  0.08884672  0.40577435     0.04900
C1040       C  0.92699509  0.09243509  0.44077709    -0.09600
C1041       C  0.90215444  0.11484793  0.45492360     0.05800
C1042       C  0.87811884  0.13159553  0.43423733    -0.13900
Br1043     Br  0.81022865  0.08586908  0.38580746    -0.06000
Br1044     Br  0.87368606  0.22624626  0.30896890    -0.00400
Br1045     Br  0.96642239  0.06395108  0.38527456     0.00100
Br1046     Br  0.84463128  0.16295095  0.45299637    -0.04300
Br1047     Br  0.76192848  0.12777840  0.33030795     0.00200
Br1048     Br  0.90715065  0.19813859  0.37876482    -0.03600
Br1049     Br  0.90532147  0.09669985  0.33793551    -0.04500
Br1050     Br  0.90015889  0.12208906  0.00243984    -0.00500
C1051       C  0.57057443  0.42881611  0.42664210     0.00900
C1052       C  0.59530174  0.40307466  0.43390245     0.03700
C1053       C  0.60982083  0.38312172  0.40817997    -0.12300
C1054       C  0.59990224  0.38881486  0.37494458     0.23000
C1055       C  0.57412230  0.41335502  0.36766616    -0.12900
C1056       C  0.55897580  0.43286049  0.39358660     0.04400
C1057       C  0.61913112  0.37097306  0.34794058     0.26900
C1058       C  0.65077993  0.38453017  0.33795567    -0.13600
C1059       C  0.67266805  0.36483067  0.31750849     0.04900
C1060       C  0.66280477  0.33135369  0.30640138    -0.09600
C1061       C  0.63015525  0.31866117  0.31494480     0.05800
C1062       C  0.60837879  0.33851948  0.33570096    -0.13900
Br1063     Br  0.56011937  0.42043844  0.32216924    -0.06000
Br1064     Br  0.60753676  0.39282240  0.47931929    -0.00400
Br1065     Br  0.71621246  0.38447186  0.30500538     0.00100
Br1066     Br  0.56440344  0.32076993  0.34880453    -0.04300
Br1067     Br  0.52237188  0.46504910  0.38371771     0.00200
Br1068     Br  0.64359155  0.34776110  0.41830283    -0.03600
Br1069     Br  0.66461199  0.42977336  0.35384152    -0.04500
Br1070     Br  0.61614532  0.27284045  0.30104601    -0.00500
C1071       C  0.82653194  0.32590148  0.18232273     0.00900
C1072       C  0.85930967  0.31304474  0.17383684     0.03700
C1073       C  0.88078156  0.33240260  0.15221012    -0.12300
C1074       C  0.87123637  0.36619925  0.14142581     0.23000
C1075       C  0.83996747  0.38046611  0.15180040    -0.12900
C1076       C  0.81747662  0.36037138  0.17176173     0.04400
C1077       C  0.89301391  0.38607459  0.11743777     0.26900
C1078       C  0.91849559  0.40852633  0.12856677    -0.13600
C1079       C  0.93770197  0.42869872  0.10539997     0.04900
C1080       C  0.93073769  0.42729155  0.07092038    -0.09600
C1081       C  0.90546841  0.40372807  0.06002457     0.05800
C1082       C  0.88707730  0.38314881  0.08323070    -0.13900
Br1083     Br  0.82834397  0.42792870  0.13853945    -0.06000
Br1084     Br  0.87818911  0.27248815  0.19586567    -0.00400
Br1085     Br  0.97245409  0.45898774  0.12158218     0.00100
Br1086     Br  0.85316372  0.35064406  0.06842087    -0.04300
Br1087     Br  0.77478794  0.38126843  0.18502235     0.00200
Br1088     Br  0.92363592  0.31288443  0.13736484    -0.03600
Br1089     Br  0.92621942  0.41216186  0.17576715    -0.04500
Br1090     Br  0.89564398  0.39752938  0.01342601    -0.00500
O1091       O  0.93330053  0.46132091  0.52081705    -0.80600
O1092       O  0.54773265  0.04160178  0.54222425    -0.80600
O1093       O  0.53033410  0.41362588  0.52233751    -0.80600
O1094       O  0.97903462  0.03823911  0.54943311    -0.80500
O1095       O  0.54714640  0.46403005  0.54327850    -0.80700
O1096       O  0.93127476  0.03202434  0.52432000    -0.80600
O1097       O  0.52040784  0.08946494  0.52410062    -0.80600
O1098       O  0.98039782  0.45585539  0.54779706    -0.80600
C1099       C  0.94902360  0.45012184  0.54607636     1.09100
C1100       C  0.54361072  0.07555672  0.54148997     1.09000
C1101       C  0.55002864  0.43023575  0.54141316     1.09100
C1102       C  0.94710528  0.03978162  0.55056000     1.09000
O1103       O  0.94782432  0.03609080  0.95327035    -0.80600
O1104       O  0.57014246  0.46737982  0.97349758    -0.80600
O1105       O  0.96893595  0.42250405  0.98374765    -0.80600
O1106       O  0.52118419  0.06384707  0.96186410    -0.80600
O1107       O  0.56793895  0.03732075  0.97291924    -0.80600
O1108       O  0.95146853  0.46503179  0.95093617    -0.80600
O1109       O  0.96172220  0.07665098  0.98809196    -0.80500
O1110       O  0.52351847  0.44386494  0.95984406    -0.80600
Co1111     Co  0.94475074  0.49893063  0.48729123     1.51500
Co1112     Co  0.55111294  0.00228350  0.00644507     1.51700
Co1113     Co  0.00491954  0.45242466  0.50433741     1.51600
Co1114     Co  0.00172194  0.04893253  0.00568936     1.51500
O1115       O  0.99679213  0.50100358  0.49101131    -1.42500
C1116       C  0.94686469  0.06770890  0.96170820     1.09000
C1117       C  0.55405431  0.44820319  0.95416828     1.09100
C1118       C  0.95364913  0.43256105  0.95747990     1.09100
C1119       C  0.55215228  0.05971975  0.95591345     1.09000
O1120       O  0.82795849  0.28286526  0.76866814    -0.80600
O1121       O  0.69029119  0.23359427  0.78478696    -0.80600
O1122       O  0.71770344  0.30766175  0.79709844    -0.80600
O1123       O  0.78125106  0.17932791  0.77683307    -0.80500
O1124       O  0.67943584  0.29462271  0.76045282    -0.80700
O1125       O  0.80304110  0.22707390  0.79226461    -0.80600
O1126       O  0.71361872  0.18408428  0.77340475    -0.80600
O1127       O  0.78755108  0.30373525  0.80107293    -0.80600
C1128       C  0.81880516  0.29868149  0.79498251     1.09100
C1129       C  0.69288170  0.20154419  0.79051213     1.09000
C1130       C  0.68749456  0.30969799  0.78726859     1.09100
C1131       C  0.79926902  0.19522562  0.79718283     1.09000
O1132       O  0.83655588  0.21947391  0.73200777    -0.80600
O1133       O  0.71762416  0.27924944  0.69959454    -0.80600
O1134       O  0.79288189  0.32243895  0.73159803    -0.80600
O1135       O  0.71610359  0.20791590  0.70373633    -0.80600
O1136       O  0.66830628  0.23437635  0.72054274    -0.80600
O1137       O  0.79900427  0.27357647  0.70405242    -0.80600
O1138       O  0.78981612  0.20260822  0.70714175    -0.80500
O1139       O  0.72406455  0.32746441  0.72702376    -0.80600
Co1140     Co  0.79868316  0.24699203  0.74734131     1.51500
Co1141     Co  0.70625833  0.25379039  0.74189929     1.51700
Co1142     Co  0.75522625  0.31130491  0.76409421     1.51600
Co1143     Co  0.75039773  0.20109701  0.74213400     1.51500
O1144       O  0.75199903  0.25747708  0.75840649    -1.42500
C1145       C  0.82232498  0.20033642  0.71074200     1.09000
C1146       C  0.71450706  0.31221241  0.70087889     1.09100
C1147       C  0.80420490  0.30625646  0.70638122     1.09100
C1148       C  0.68357434  0.21252253  0.70175972     1.09000
C1149       C  0.66481966  0.19361179  0.67585647     0.00900
C1150       C  0.66654174  0.15659674  0.67464235     0.03700
C1151       C  0.64740921  0.13845497  0.65115604    -0.12300
C1152       C  0.62914639  0.15722033  0.62663038     0.23000
C1153       C  0.62981757  0.19416647  0.62615496    -0.12900
C1154       C  0.64537915  0.21210637  0.65211854     0.04400
C1155       C  0.60726704  0.13823194  0.60307266     0.26900
C1156       C  0.62173477  0.11759284  0.57764959    -0.13400
C1157       C  0.60093982  0.09626869  0.55831115     0.04900
C1158       C  0.56527632  0.09810123  0.56202490    -0.09600
C1159       C  0.55090080  0.12284522  0.58404731     0.05800
C1160       C  0.57168688  0.14062197  0.60629386    -0.13900
Br1161     Br  0.61011657  0.22016550  0.58945731    -0.06000
Br1162     Br  0.69331781  0.13028989  0.70640306    -0.00400
Br1163     Br  0.62154840  0.06686630  0.52482877     0.00100
Br1164     Br  0.55121275  0.16720349  0.64202360    -0.04300
Br1165     Br  0.63855096  0.26170679  0.65572681     0.00200
Br1166     Br  0.64507381  0.08788415  0.65346584    -0.03600
Br1167     Br  0.66988757  0.11963739  0.56861405    -0.04500
Br1168     Br  0.50338453  0.13472974  0.58262836    -0.00500
C1169       C  0.67087388  0.18428378  0.81601030     0.00900
C1170       C  0.64118374  0.16698152  0.80636011     0.03700
C1171       C  0.62111305  0.14896575  0.83027006    -0.12300
C1172       C  0.63072319  0.14778948  0.86395601     0.23000
C1173       C  0.65957492  0.16641054  0.87389551    -0.12900
C1174       C  0.67920141  0.18521072  0.85001046     0.04400
C1175       C  0.61104476  0.12566659  0.88826027     0.26900
C1176       C  0.58533809  0.14053208  0.90838099    -0.13600
C1177       C  0.56537990  0.11901909  0.92978796     0.04900
C1178       C  0.57085455  0.08217985  0.93104476    -0.09600
C1179       C  0.59692682  0.06754400  0.91082810     0.05800
C1180       C  0.61678266  0.08919053  0.88960045    -0.13900
Br1181     Br  0.67261028  0.16543440  0.92001504    -0.06000
Br1182     Br  0.62711808  0.16880969  0.76059390    -0.00400
Br1183     Br  0.53232369  0.14106507  0.95881228     0.00100
Br1184     Br  0.65205197  0.06892468  0.86190773    -0.04300
Br1185     Br  0.71725555  0.21269524  0.86363587     0.00200
Br1186     Br  0.58041325  0.12541467  0.81701584    -0.03600
Br1187     Br  0.57776014  0.19062128  0.90654985    -0.04500
Br1188     Br  0.60545745  0.01763268  0.91111389    -0.00500
C1189       C  0.57539237  0.41140064  0.56251014     0.00900
C1190       C  0.60924427  0.42356350  0.56330179     0.03700
C1191       C  0.63367965  0.40576573  0.58265305    -0.12300
C1192       C  0.62455849  0.37634669  0.60239305     0.23000
C1193       C  0.59075874  0.36433323  0.60191526    -0.12900
C1194       C  0.56639168  0.38146934  0.58180347     0.04400
C1195       C  0.64941488  0.36116641  0.62668259     0.26900
C1196       C  0.67346214  0.33552408  0.61714675    -0.13600
C1197       C  0.69678200  0.32173918  0.64058998     0.04900
C1198       C  0.69518630  0.33213614  0.67438630    -0.09600
C1199       C  0.67221377  0.35961636  0.68310890     0.05800
C1200       C  0.64989646  0.37407303  0.65931246    -0.13900
Br1201     Br  0.57731595  0.32535263  0.63009216    -0.06000
Br1202     Br  0.62296482  0.46451712  0.53760920    -0.00400
Br1203     Br  0.73120548  0.28896278  0.62599084     0.00100
Br1204     Br  0.61933535  0.41192791  0.67125972    -0.04300
Br1205     Br  0.52002901  0.36552960  0.58300348     0.00200
Br1206     Br  0.67979214  0.42229602  0.58306114    -0.03600
Br1207     Br  0.67345520  0.31839309  0.57218245    -0.04500
Br1208     Br  0.66918784  0.37775693  0.72764273    -0.00500
C1209       C  0.92824742  0.05502207  0.58035775     0.00900
C1210       C  0.94605446  0.06846072  0.60798199     0.03700
C1211       C  0.93001733  0.09227313  0.63000795    -0.12300
C1212       C  0.89508502  0.09949656  0.62762313     0.23000
C1213       C  0.87604148  0.08096814  0.60438389    -0.12900
C1214       C  0.89233941  0.05950742  0.58043928     0.04400
C1215       C  0.87809744  0.12628170  0.64946815     0.26900
C1216       C  0.87103335  0.11879401  0.68344702    -0.13600
C1217       C  0.85493481  0.14411206  0.70369583     0.04900
C1218       C  0.84282953  0.17594567  0.68965297    -0.09600
C1219       C  0.84909588  0.18310983  0.65544232     0.05800
C1220       C  0.86789748  0.15905922  0.63586535    -0.13900
Br1221     Br  0.82721135  0.08495349  0.60596866    -0.06000
Br1222     Br  0.99121294  0.05228933  0.61852764    -0.00400
Br1223     Br  0.84906913  0.13472120  0.75079376     0.00100
Br1224     Br  0.88018233  0.17107186  0.59034689    -0.04300
Br1225     Br  0.86394565  0.03556760  0.54928776     0.00200
Br1226     Br  0.95620907  0.11604911  0.66296951    -0.03600
Br1227     Br  0.88189545  0.07312956  0.70194243    -0.04500
Br1228     Br  0.83182239  0.22564967  0.63516366    -0.00500
C1229       C  0.93738263  0.40735660  0.93474228     0.00900
C1230       C  0.90619652  0.41667529  0.91972932     0.03700
C1231       C  0.89144090  0.39444401  0.89658173    -0.12300
C1232       C  0.90669510  0.36207635  0.88897020     0.23000
C1233       C  0.93717699  0.35200571  0.90432671    -0.12900
C1234       C  0.95274193  0.37468098  0.92696331     0.04400
C1235       C  0.88978725  0.33934033  0.86463029     0.26900
C1236       C  0.86418308  0.31625121  0.87580266    -0.13600
C1237       C  0.84157625  0.30205339  0.85290075     0.04900
C1238       C  0.84447648  0.31096427  0.81862212    -0.09600
C1239       C  0.87160210  0.33225603  0.80723975     0.05800
C1240       C  0.89431040  0.34617637  0.83022455    -0.13900
Br1241     Br  0.95762023  0.30735030  0.89377258    -0.06000
Br1242     Br  0.88174614  0.45893808  0.93173587    -0.00400
Br1243     Br  0.80674643  0.27030023  0.86872330     0.00100
Br1244     Br  0.93012427  0.37708489  0.81511650    -0.04300
Br1245     Br  0.99579989  0.36121058  0.94563326     0.00200
Br1246     Br  0.85001330  0.40843884  0.87468275    -0.03600
Br1247     Br  0.85892251  0.30596334  0.92286475    -0.04500
Br1248     Br  0.87586692  0.34564920  0.76073956    -0.00500
C1249       C  0.81795540  0.17740866  0.82496458     0.00900
C1250       C  0.84964234  0.19105735  0.83497063     0.03700
C1251       C  0.86670221  0.17631332  0.86226516    -0.12300
C1252       C  0.85526868  0.14493330  0.87701788     0.23000
C1253       C  0.82469901  0.13004990  0.86653921    -0.12900
C1254       C  0.80535445  0.14692036  0.84148951     0.04400
C1255       C  0.87850044  0.12552220  0.89962605     0.26900
C1256       C  0.90414049  0.10439094  0.88546078    -0.13600
C1257       C  0.92885431  0.08884678  0.90577438     0.04900
C1258       C  0.92699502  0.09243512  0.94077710    -0.09600
C1259       C  0.90215434  0.11484802  0.95492358     0.05800
C1260       C  0.87811883  0.13159567  0.93423728    -0.13900
Br1261     Br  0.81022861  0.08586909  0.88580754    -0.06000
Br1262     Br  0.87368602  0.22624624  0.80896876    -0.00400
Br1263     Br  0.96642238  0.06395131  0.88527464     0.00100
Br1264     Br  0.84463101  0.16295095  0.95299622    -0.04300
Br1265     Br  0.76192843  0.12777840  0.83030803     0.00200
Br1266     Br  0.90715063  0.19813859  0.87876467    -0.03600
Br1267     Br  0.90532166  0.09669987  0.83793539    -0.04500
Br1268     Br  0.90015910  0.12208905  0.50243991    -0.00500
C1269       C  0.57057451  0.42881625  0.92664198     0.00900
C1270       C  0.59530171  0.40307472  0.93390239     0.03700
C1271       C  0.60982077  0.38312175  0.90817984    -0.12300
C1272       C  0.59990220  0.38881502  0.87494450     0.23000
C1273       C  0.57412231  0.41335520  0.86766605    -0.12900
C1274       C  0.55897589  0.43286070  0.89358658     0.04400
C1275       C  0.61913110  0.37097326  0.84794042     0.26900
C1276       C  0.65077988  0.38453038  0.83795549    -0.13600
C1277       C  0.67266804  0.36483080  0.81750838     0.04900
C1278       C  0.66280475  0.33135378  0.80640137    -0.09600
C1279       C  0.63015527  0.31866126  0.81494481     0.05800
C1280       C  0.60837878  0.33851967  0.83570086    -0.13900
Br1281     Br  0.56011934  0.42043870  0.82216911    -0.06000
Br1282     Br  0.60753673  0.39282240  0.97931915    -0.00400
Br1283     Br  0.71621245  0.38447188  0.80500521     0.00100
Br1284     Br  0.56440362  0.32076993  0.84880462    -0.04300
Br1285     Br  0.52237207  0.46504937  0.88371778     0.00200
Br1286     Br  0.64359151  0.34776110  0.91830266    -0.03600
Br1287     Br  0.66461195  0.42977364  0.85384112    -0.04500
Br1288     Br  0.61614529  0.27284047  0.80104610    -0.00500
C1289       C  0.82653188  0.32590145  0.68232270     0.00900
C1290       C  0.85930963  0.31304474  0.67383689     0.03700
C1291       C  0.88078155  0.33240262  0.65221019    -0.12300
C1292       C  0.87123635  0.36619924  0.64142584     0.23000
C1293       C  0.83996740  0.38046603  0.65180031    -0.12900
C1294       C  0.81747654  0.36037130  0.67176163     0.04400
C1295       C  0.89301391  0.38607461  0.61743776     0.26900
C1296       C  0.91849557  0.40852634  0.62856678    -0.13600
C1297       C  0.93770195  0.42869871  0.60539996     0.04900
C1298       C  0.93073775  0.42729157  0.57092038    -0.09600
C1299       C  0.90546840  0.40372811  0.56002451     0.05800
C1300       C  0.88707731  0.38314887  0.58323069    -0.13900
Br1301     Br  0.82834369  0.42792848  0.63853926    -0.06000
Br1302     Br  0.87818907  0.27248816  0.69586575    -0.00400
Br1303     Br  0.97245405  0.45898773  0.62158225     0.00100
Br1304     Br  0.85316365  0.35064429  0.56842093    -0.04300
Br1305     Br  0.77478789  0.38126842  0.68502219     0.00200
Br1306     Br  0.92363588  0.31288443  0.63736493    -0.03600
Br1307     Br  0.92621938  0.41216185  0.67576721    -0.04500
Br1308     Br  0.89564393  0.39752963  0.51342587    -0.00500
O1309       O  0.93330034  0.96132091  0.02081699    -0.80600
O1310       O  0.54773266  0.54160170  0.04222435    -0.80600
O1311       O  0.53033404  0.91362603  0.02233768    -0.80600
O1312       O  0.97903446  0.53823903  0.04943321    -0.80500
O1313       O  0.54714646  0.96403024  0.04327848    -0.80700
O1314       O  0.93127463  0.53202431  0.02432006    -0.80600
O1315       O  0.52040771  0.58946483  0.02410093    -0.80600
O1316       O  0.98039756  0.95585561  0.04779714    -0.80600
C1317       C  0.94902333  0.95012197  0.04607640     1.09100
C1318       C  0.54361060  0.57555668  0.04149016     1.09000
C1319       C  0.55002864  0.93023587  0.04141324     1.09100
C1320       C  0.94710510  0.53978145  0.05056010     1.09000
O1321       O  0.94782436  0.53609082  0.45327033    -0.80600
O1322       O  0.57014249  0.96737976  0.47349772    -0.80600
O1323       O  0.96893587  0.92250399  0.48374779    -0.80600
O1324       O  0.52118422  0.56384706  0.46186426    -0.80600
O1325       O  0.56793894  0.53732051  0.47291921    -0.80600
O1326       O  0.95146855  0.96503169  0.45093617    -0.80600
O1327       O  0.96172225  0.57665092  0.48809202    -0.80500
O1328       O  0.52351846  0.94386493  0.45984430    -0.80600
Co1329     Co  0.94475067  0.99893062  0.98729124     1.51500
Co1330     Co  0.55111292  0.50228329  0.50644511     1.51700
Co1331     Co  0.00491936  0.95242469  0.00433752     1.51600
Co1332     Co  0.00172206  0.54893254  0.50568945     1.51500
O1333       O  0.99679209  0.00100357  0.99101127    -1.42500
C1334       C  0.94686476  0.56770889  0.46170822     1.09000
C1335       C  0.55405426  0.94820308  0.45416841     1.09100
C1336       C  0.95364914  0.93256083  0.45748007     1.09100
C1337       C  0.55215244  0.55971962  0.45591359     1.09000
O1338       O  0.82795854  0.78286516  0.26866825    -0.80600
O1339       O  0.69029125  0.73359417  0.28478706    -0.80600
O1340       O  0.71770341  0.80766175  0.29709853    -0.80600
O1341       O  0.78125123  0.67932786  0.27683296    -0.80500
O1342       O  0.67943583  0.79462265  0.26045293    -0.80700
O1343       O  0.80304118  0.72707380  0.29226470    -0.80600
O1344       O  0.71361894  0.68408424  0.27340488    -0.80600
O1345       O  0.78755110  0.80373521  0.30107300    -0.80600
C1346       C  0.81880518  0.79868136  0.29498261     1.09100
C1347       C  0.69288183  0.70154416  0.29051229     1.09000
C1348       C  0.68749451  0.80969796  0.28726867     1.09100
C1349       C  0.79926907  0.69522541  0.29718285     1.09000
O1350       O  0.83655595  0.71947383  0.23200787    -0.80600
O1351       O  0.71762422  0.77924945  0.19959468    -0.80600
O1352       O  0.79288189  0.82243895  0.23159821    -0.80600
O1353       O  0.71610358  0.70791586  0.20373640    -0.80600
O1354       O  0.66830635  0.73437641  0.22054280    -0.80600
O1355       O  0.79900436  0.77357646  0.20405259    -0.80600
O1356       O  0.78981616  0.70260827  0.20714170    -0.80500
O1357       O  0.72406455  0.82746442  0.22702391    -0.80600
Co1358     Co  0.79868327  0.74699190  0.24734142     1.51500
Co1359     Co  0.70625842  0.75379037  0.24189941     1.51700
Co1360     Co  0.75522625  0.81130490  0.26409432     1.51600
Co1361     Co  0.75039780  0.70109700  0.24213399     1.51500
O1362       O  0.75199916  0.75747705  0.25840656    -1.42500
C1363       C  0.82232501  0.70033642  0.21074196     1.09000
C1364       C  0.71450707  0.81221240  0.20087901     1.09100
C1365       C  0.80420490  0.80625642  0.20638135     1.09100
C1366       C  0.68357433  0.71252253  0.20175982     1.09000
C1367       C  0.66481962  0.69361177  0.17585661     0.00900
C1368       C  0.66654163  0.65659668  0.17464259     0.03700
C1369       C  0.64740914  0.63845491  0.15115625    -0.12300
C1370       C  0.62914634  0.65722022  0.12663056     0.23000
C1371       C  0.62981756  0.69416636  0.12615512    -0.12900
C1372       C  0.64537912  0.71210630  0.15211865     0.04400
C1373       C  0.60726697  0.63823189  0.10307285     0.26900
C1374       C  0.62173470  0.61759277  0.07764982    -0.13400
C1375       C  0.60093970  0.59626855  0.05831150     0.04900
C1376       C  0.56527625  0.59810117  0.06202514    -0.09600
C1377       C  0.55090072  0.62284521  0.08404746     0.05800
C1378       C  0.57168681  0.64062192  0.10629401    -0.13900
Br1379     Br  0.61011657  0.72016525  0.08945745    -0.06000
Br1380     Br  0.69331755  0.63028988  0.20640347    -0.00400
Br1381     Br  0.62154819  0.56686626  0.02482915     0.00100
Br1382     Br  0.55121273  0.66720325  0.14202379    -0.04300
Br1383     Br  0.63855073  0.76170676  0.15572674     0.00200
Br1384     Br  0.64507356  0.58788413  0.15346624    -0.03600
Br1385     Br  0.66988755  0.61963712  0.06861446    -0.04500
Br1386     Br  0.50338452  0.63472974  0.08262852    -0.00500
C1387       C  0.67087415  0.68428365  0.31601047     0.00900
C1388       C  0.64118374  0.66698183  0.30636040     0.03700
C1389       C  0.62111310  0.64896602  0.33027032    -0.12300
C1390       C  0.63072350  0.64778926  0.36395621     0.23000
C1391       C  0.65957559  0.66640984  0.37389564    -0.12900
C1392       C  0.67920210  0.68520997  0.35001057     0.04400
C1393       C  0.61104502  0.62566637  0.38826037     0.26900
C1394       C  0.58533871  0.64053200  0.40838150    -0.13600
C1395       C  0.56538047  0.61901906  0.42978839     0.04900
C1396       C  0.57085463  0.58217978  0.43104493    -0.09600
C1397       C  0.59692660  0.56754372  0.41082788     0.05800
C1398       C  0.61678242  0.58919021  0.38960019    -0.13900
Br1399     Br  0.67261130  0.66543309  0.42001515    -0.06000
Br1400     Br  0.62711781  0.66881071  0.26059430    -0.00400
Br1401     Br  0.53232492  0.64106531  0.45881322     0.00100
Br1402     Br  0.65205122  0.56892417  0.36190690    -0.04300
Br1403     Br  0.71725684  0.71269368  0.36363580     0.00200
Br1404     Br  0.58041298  0.62541545  0.31701624    -0.03600
Br1405     Br  0.57776141  0.69062128  0.40655101    -0.04500
Br1406     Br  0.60545645  0.51763222  0.41111306    -0.00500
C1407       C  0.57539238  0.91140087  0.06251026     0.00900
C1408       C  0.60924433  0.92356360  0.06330176     0.03700
C1409       C  0.63367966  0.90576593  0.08265313    -0.12300
C1410       C  0.62455850  0.87634698  0.10239331     0.23000
C1411       C  0.59075871  0.86433366  0.10191564    -0.12900
C1412       C  0.56639165  0.88146967  0.08180383     0.04400
C1413       C  0.64941491  0.86116663  0.12668278     0.26900
C1414       C  0.67346191  0.83552405  0.11714702    -0.13600
C1415       C  0.69678181  0.82173903  0.14059013     0.04900
C1416       C  0.69518632  0.83213613  0.17438645    -0.09600
C1417       C  0.67221396  0.85961653  0.18310900     0.05800
C1418       C  0.64989673  0.87407336  0.15931260    -0.13900
Br1419     Br  0.57731595  0.82535314  0.13009259    -0.06000
Br1420     Br  0.62296506  0.96451709  0.03760888    -0.00400
Br1421     Br  0.73120522  0.78896253  0.12599077     0.00100
Br1422     Br  0.61933611  0.91192870  0.17125965    -0.04300
Br1423     Br  0.52002901  0.86552986  0.08300389     0.00200
Br1424     Br  0.67979217  0.92229602  0.08306105    -0.03600
Br1425     Br  0.67345470  0.81839306  0.07218282    -0.04500
Br1426     Br  0.66918785  0.87775693  0.22764291    -0.00500
C1427       C  0.92824729  0.55502179  0.08035791     0.00900
C1428       C  0.94605432  0.56846044  0.10798210     0.03700
C1429       C  0.93001725  0.59227288  0.13000805    -0.12300
C1430       C  0.89508498  0.59949640  0.12762324     0.23000
C1431       C  0.87604142  0.58096795  0.10438406    -0.12900
C1432       C  0.89233930  0.55950713  0.08043948     0.04400
C1433       C  0.87809746  0.62628165  0.14946825     0.26900
C1434       C  0.87103349  0.61879405  0.18344719    -0.13600
C1435       C  0.85493503  0.64411220  0.20369595     0.04900
C1436       C  0.84282960  0.67594572  0.18965302    -0.09600
C1437       C  0.84909589  0.68310980  0.15544234     0.05800
C1438       C  0.86789746  0.65905914  0.13586538    -0.13900
Br1439     Br  0.82721134  0.58495348  0.10596882    -0.06000
Br1440     Br  0.99121274  0.55228904  0.11852780    -0.00400
Br1441     Br  0.84906939  0.63472146  0.25079392     0.00100
Br1442     Br  0.88018209  0.67107160  0.09034680    -0.04300
Br1443     Br  0.86394562  0.53556706  0.04928816     0.00200
Br1444     Br  0.95620909  0.61604886  0.16296946    -0.03600
Br1445     Br  0.88189569  0.57312961  0.20194281    -0.04500
Br1446     Br  0.83182240  0.72564967  0.13516380    -0.00500
C1447       C  0.93738251  0.90735641  0.43474251     0.00900
C1448       C  0.90619644  0.91667509  0.41972953     0.03700
C1449       C  0.89144074  0.89444376  0.39658203    -0.12300
C1450       C  0.90669494  0.86207602  0.38897058     0.23000
C1451       C  0.93717684  0.85200532  0.40432711    -0.12900
C1452       C  0.95274180  0.87468063  0.42696370     0.04400
C1453       C  0.88978712  0.83934006  0.36463063     0.26900
C1454       C  0.86418282  0.81625108  0.37580295    -0.13600
C1455       C  0.84157611  0.80205325  0.35290092     0.04900
C1456       C  0.84447649  0.81096406  0.31862229    -0.09600
C1457       C  0.87160214  0.83225581  0.30723998     0.05800
C1458       C  0.89431042  0.84617607  0.33022487    -0.13900
Br1459     Br  0.95762021  0.80734984  0.39377277    -0.06000
Br1460     Br  0.88174615  0.95893805  0.43173602    -0.00400
Br1461     Br  0.80674617  0.77030021  0.36872325     0.00100
Br1462     Br  0.93012452  0.87708435  0.31511692    -0.04300
Br1463     Br  0.99579985  0.86121032  0.44563366     0.00200
Br1464     Br  0.85001310  0.90843856  0.37468295    -0.03600
Br1465     Br  0.85892200  0.80596333  0.42286512    -0.04500
Br1466     Br  0.87586693  0.84564919  0.26073976    -0.00500
C1467       C  0.81795544  0.67740852  0.32496457     0.00900
C1468       C  0.84964228  0.69105724  0.33497085     0.03700
C1469       C  0.86670205  0.67631324  0.36226545    -0.12300
C1470       C  0.85526854  0.64493310  0.37701801     0.23000
C1471       C  0.82469900  0.63004963  0.36653911    -0.12900
C1472       C  0.80535450  0.64692008  0.34148940     0.04400
C1473       C  0.87850030  0.62552197  0.39962618     0.26900
C1474       C  0.90414056  0.60439102  0.38546088    -0.13600
C1475       C  0.92885445  0.58884695  0.40577446     0.04900
C1476       C  0.92699506  0.59243513  0.44077717    -0.09600
C1477       C  0.90215418  0.61484773  0.45492370     0.05800
C1478       C  0.87811854  0.63159523  0.43423741    -0.13900
Br1479     Br  0.81022865  0.58586857  0.38580697    -0.06000
Br1480     Br  0.87368602  0.72624623  0.30896916    -0.00400
Br1481     Br  0.96642240  0.56395131  0.38527478     0.00100
Br1482     Br  0.84463051  0.66295016  0.45299639    -0.04300
Br1483     Br  0.76192869  0.62777788  0.33030768     0.00200
Br1484     Br  0.90715034  0.69813857  0.37876531    -0.03600
Br1485     Br  0.90532193  0.59670037  0.33793551    -0.04500
Br1486     Br  0.90015883  0.62208880  0.00244009    -0.00500
C1487       C  0.57057445  0.92881620  0.42664212     0.00900
C1488       C  0.59530148  0.90307451  0.43390240     0.03700
C1489       C  0.60982045  0.88312151  0.40817988    -0.12300
C1490       C  0.59990202  0.88881496  0.37494453     0.23000
C1491       C  0.57412227  0.91335530  0.36766615    -0.12900
C1492       C  0.55897584  0.93286078  0.39358666     0.04400
C1493       C  0.61913101  0.87097324  0.34794050     0.26900
C1494       C  0.65077990  0.88453022  0.33795582    -0.13600
C1495       C  0.67266811  0.86483065  0.31750876     0.04900
C1496       C  0.66280469  0.83135378  0.30640147    -0.09600
C1497       C  0.63015508  0.81866142  0.31494463     0.05800
C1498       C  0.60837858  0.83851980  0.33570073    -0.13900
Br1499     Br  0.56011959  0.92043922  0.32216924    -0.06000
Br1500     Br  0.60753650  0.89282212  0.47931910    -0.00400
Br1501     Br  0.71621268  0.88447159  0.30500588     0.00100
Br1502     Br  0.56440314  0.82077044  0.34880403    -0.04300
Br1503     Br  0.52237209  0.96504961  0.38371795     0.00200
Br1504     Br  0.64359079  0.84776055  0.41830260    -0.03600
Br1505     Br  0.66461197  0.92977339  0.35384155    -0.04500
Br1506     Br  0.61614504  0.77284073  0.30104576    -0.00500
C1507       C  0.82653178  0.82590155  0.18232280     0.00900
C1508       C  0.85930949  0.81304479  0.17383681     0.03700
C1509       C  0.88078136  0.83240269  0.15221008    -0.12300
C1510       C  0.87123617  0.86619931  0.14142582     0.23000
C1511       C  0.83996726  0.88046617  0.15180042    -0.12900
C1512       C  0.81747647  0.86037140  0.17176181     0.04400
C1513       C  0.89301368  0.88607471  0.11743779     0.26900
C1514       C  0.91849520  0.90852664  0.12856685    -0.13600
C1515       C  0.93770155  0.92869897  0.10540000     0.04900
C1516       C  0.93073747  0.92729174  0.07092042    -0.09600
C1517       C  0.90546821  0.90372816  0.06002457     0.05800
C1518       C  0.88707715  0.88314889  0.08323071    -0.13900
Br1519     Br  0.82834368  0.92792871  0.13853944    -0.06000
Br1520     Br  0.87818907  0.77248838  0.19586568    -0.00400
Br1521     Br  0.97245334  0.95898829  0.12158220     0.00100
Br1522     Br  0.85316367  0.85064404  0.06842086    -0.04300
Br1523     Br  0.77478789  0.88126844  0.18502260     0.00200
Br1524     Br  0.92363564  0.81288443  0.13736460    -0.03600
Br1525     Br  0.92621887  0.91216237  0.17576735    -0.04500
Br1526     Br  0.89564394  0.89752937  0.01342601    -0.00500
O1527       O  0.93330035  0.96132094  0.52081702    -0.80600
O1528       O  0.54773263  0.54160160  0.54222439    -0.80600
O1529       O  0.53033403  0.91362602  0.52233775    -0.80600
O1530       O  0.97903457  0.53823908  0.54943319    -0.80500
O1531       O  0.54714643  0.96403024  0.54327856    -0.80700
O1532       O  0.93127473  0.53202429  0.52432003    -0.80600
O1533       O  0.52040780  0.58946478  0.52410087    -0.80600
O1534       O  0.98039754  0.95585555  0.54779720    -0.80600
C1535       C  0.94902342  0.95012198  0.54607648     1.09100
C1536       C  0.54361067  0.57555657  0.54149018     1.09000
C1537       C  0.55002862  0.93023586  0.54141333     1.09100
C1538       C  0.94710523  0.53978154  0.55056005     1.09000
O1539       O  0.94782429  0.53609094  0.95327039    -0.80600
O1540       O  0.57014252  0.96737994  0.97349765    -0.80600
O1541       O  0.96893592  0.92250403  0.98374769    -0.80600
O1542       O  0.52118417  0.56384722  0.96186430    -0.80600
O1543       O  0.56793892  0.53732071  0.97291925    -0.80600
O1544       O  0.95146850  0.96503172  0.95093616    -0.80600
O1545       O  0.96172215  0.57665101  0.98809212    -0.80500
O1546       O  0.52351855  0.94386495  0.95984430    -0.80600
Co1547     Co  0.94475071  0.99893060  0.48729122     1.51500
Co1548     Co  0.55111293  0.50228343  0.00644505     1.51700
Co1549     Co  0.00491936  0.95242452  0.50433759     1.51600
Co1550     Co  0.00172193  0.54893258  0.00568947     1.51500
O1551       O  0.99679212  0.00100341  0.49101132    -1.42500
C1552       C  0.94686470  0.56770893  0.96170826     1.09000
C1553       C  0.55405426  0.94820322  0.95416836     1.09100
C1554       C  0.95364911  0.93256087  0.95747999     1.09100
C1555       C  0.55215245  0.55971973  0.95591362     1.09000
O1556       O  0.82795843  0.78286511  0.76866830    -0.80600
O1557       O  0.69029117  0.73359415  0.78478705    -0.80600
O1558       O  0.71770336  0.80766174  0.79709861    -0.80600
O1559       O  0.78125106  0.67932785  0.77683309    -0.80500
O1560       O  0.67943583  0.79462263  0.76045297    -0.80700
O1561       O  0.80304108  0.72707379  0.79226467    -0.80600
O1562       O  0.71361890  0.68408422  0.77340496    -0.80600
O1563       O  0.78755105  0.80373521  0.80107309    -0.80600
C1564       C  0.81880513  0.79868133  0.79498269     1.09100
C1565       C  0.69288178  0.70154415  0.79051235     1.09000
C1566       C  0.68749458  0.80969801  0.78726877     1.09100
C1567       C  0.79926899  0.69522544  0.79718291     1.09000
O1568       O  0.83655587  0.71947387  0.73200790    -0.80600
O1569       O  0.71762423  0.77924947  0.69959475    -0.80600
O1570       O  0.79288186  0.82243891  0.73159826    -0.80600
O1571       O  0.71610355  0.70791585  0.70373644    -0.80600
O1572       O  0.66830633  0.73437642  0.72054284    -0.80600
O1573       O  0.79900425  0.77357647  0.70405252    -0.80600
O1574       O  0.78981612  0.70260824  0.70714178    -0.80500
O1575       O  0.72406453  0.82746443  0.72702398    -0.80600
Co1576     Co  0.79868312  0.74699188  0.74734136     1.51500
Co1577     Co  0.70625839  0.75379036  0.74189945     1.51700
Co1578     Co  0.75522622  0.81130490  0.76409441     1.51600
Co1579     Co  0.75039774  0.70109700  0.74213407     1.51500
O1580       O  0.75199907  0.75747706  0.75840662    -1.42500
C1581       C  0.82232498  0.70033640  0.71074202     1.09000
C1582       C  0.71450710  0.81221241  0.70087908     1.09100
C1583       C  0.80420484  0.80625643  0.70638140     1.09100
C1584       C  0.68357440  0.71252250  0.70175977     1.09000
C1585       C  0.66481961  0.69361179  0.67585662     0.00900
C1586       C  0.66654159  0.65659666  0.67464266     0.03700
C1587       C  0.64740917  0.63845489  0.65115627    -0.12300
C1588       C  0.62914648  0.65722017  0.62663050     0.23000
C1589       C  0.62981766  0.69416631  0.62615508    -0.12900
C1590       C  0.64537914  0.71210626  0.65211863     0.04400
C1591       C  0.60726708  0.63823179  0.60307284     0.26900
C1592       C  0.62173476  0.61759261  0.57764986    -0.13400
C1593       C  0.60093979  0.59626848  0.55831145     0.04900
C1594       C  0.56527632  0.59810105  0.56202513    -0.09600
C1595       C  0.55090085  0.62284503  0.58404757     0.05800
C1596       C  0.57168694  0.64062185  0.60629403    -0.13900
Br1597     Br  0.61011676  0.72016525  0.58945750    -0.06000
Br1598     Br  0.69331751  0.63028988  0.70640355    -0.00400
Br1599     Br  0.62154837  0.56686601  0.52482924     0.00100
Br1600     Br  0.55121294  0.66720351  0.64202363    -0.04300
Br1601     Br  0.63855069  0.76170674  0.65572682     0.00200
Br1602     Br  0.64507377  0.58788412  0.65346609    -0.03600
Br1603     Br  0.66988755  0.61963710  0.56861453    -0.04500
Br1604     Br  0.50338469  0.63472949  0.58262862    -0.00500
C1605       C  0.67087408  0.68428371  0.81601052     0.00900
C1606       C  0.64118367  0.66698188  0.80636046     0.03700
C1607       C  0.62111295  0.64896617  0.83027037    -0.12300
C1608       C  0.63072338  0.64778938  0.86395626     0.23000
C1609       C  0.65957543  0.66641000  0.87389569    -0.12900
C1610       C  0.67920193  0.68521019  0.85001067     0.04400
C1611       C  0.61104493  0.62566650  0.88826041     0.26900
C1612       C  0.58533865  0.64053214  0.90838159    -0.13600
C1613       C  0.56538046  0.61901916  0.92978848     0.04900
C1614       C  0.57085455  0.58217990  0.93104494    -0.09600
C1615       C  0.59692651  0.56754384  0.91082785     0.05800
C1616       C  0.61678235  0.58919035  0.88960023    -0.13900
Br1617     Br  0.67261101  0.66543334  0.92001524    -0.06000
Br1618     Br  0.62711777  0.66881071  0.76059437    -0.00400
Br1619     Br  0.53232512  0.64106531  0.95881355     0.00100
Br1620     Br  0.65205120  0.56892441  0.86190698    -0.04300
Br1621     Br  0.71725676  0.71269391  0.86363588     0.00200
Br1622     Br  0.58041293  0.62541544  0.81701632    -0.03600
Br1623     Br  0.57776136  0.69062150  0.90655110    -0.04500
Br1624     Br  0.60545642  0.51763243  0.91111314    -0.00500
C1625       C  0.57539236  0.91140083  0.56251037     0.00900
C1626       C  0.60924432  0.92356349  0.56330187     0.03700
C1627       C  0.63367969  0.90576576  0.58265316    -0.12300
C1628       C  0.62455844  0.87634684  0.60239334     0.23000
C1629       C  0.59075862  0.86433358  0.60191576    -0.12900
C1630       C  0.56639161  0.88146966  0.58180393     0.04400
C1631       C  0.64941484  0.86116653  0.62668282     0.26900
C1632       C  0.67346192  0.83552404  0.61714705    -0.13600
C1633       C  0.69678179  0.82173901  0.64059019     0.04900
C1634       C  0.69518630  0.83213614  0.67438648    -0.09600
C1635       C  0.67221394  0.85961654  0.68310900     0.05800
C1636       C  0.64989659  0.87407324  0.65931263    -0.13900
Br1637     Br  0.57731566  0.82535316  0.63009290    -0.06000
Br1638     Br  0.62296503  0.96451685  0.53760895    -0.00400
Br1639     Br  0.73120518  0.78896252  0.62599086     0.00100
Br1640     Br  0.61933581  0.91192844  0.67125973    -0.04300
Br1641     Br  0.52002895  0.86553010  0.58300399     0.00200
Br1642     Br  0.67979234  0.92229574  0.58306089    -0.03600
Br1643     Br  0.67345490  0.81839306  0.57218289    -0.04500
Br1644     Br  0.66918807  0.87775719  0.72764276    -0.00500
C1645       C  0.92824734  0.55502202  0.58035778     0.00900
C1646       C  0.94605434  0.56846057  0.60798205     0.03700
C1647       C  0.93001725  0.59227290  0.63000808    -0.12300
C1648       C  0.89508499  0.59949652  0.62762323     0.23000
C1649       C  0.87604145  0.58096818  0.60438391    -0.12900
C1650       C  0.89233935  0.55950743  0.58043929     0.04400
C1651       C  0.87809751  0.62628169  0.64946823     0.26900
C1652       C  0.87103349  0.61879408  0.68344718    -0.13600
C1653       C  0.85493501  0.64411218  0.70369592     0.04900
C1654       C  0.84282959  0.67594573  0.68965307    -0.09600
C1655       C  0.84909599  0.68310984  0.65544241     0.05800
C1656       C  0.86789751  0.65905922  0.63586543    -0.13900
Br1657     Br  0.82721133  0.58495374  0.60596865    -0.06000
Br1658     Br  0.99121271  0.55228905  0.61852766    -0.00400
Br1659     Br  0.84906935  0.63472144  0.75079381     0.00100
Br1660     Br  0.88018230  0.67107184  0.59034689    -0.04300
Br1661     Br  0.86394561  0.53556760  0.54928777     0.00200
Br1662     Br  0.95620906  0.61604885  0.66296955    -0.03600
Br1663     Br  0.88189565  0.57312960  0.70194266    -0.04500
Br1664     Br  0.83182260  0.72564968  0.63516389    -0.00500
C1665       C  0.93738252  0.90735643  0.93474239     0.00900
C1666       C  0.90619649  0.91667508  0.91972939     0.03700
C1667       C  0.89144081  0.89444375  0.89658189    -0.12300
C1668       C  0.90669499  0.86207600  0.88897047     0.23000
C1669       C  0.93717688  0.85200535  0.90432702    -0.12900
C1670       C  0.95274181  0.87468068  0.92696360     0.04400
C1671       C  0.88978718  0.83933998  0.86463062     0.26900
C1672       C  0.86418295  0.81625093  0.87580299    -0.13600
C1673       C  0.84157616  0.80205318  0.85290102     0.04900
C1674       C  0.84447645  0.81096402  0.81862236    -0.09600
C1675       C  0.87160216  0.83225567  0.80724002     0.05800
C1676       C  0.89431046  0.84617593  0.83022487    -0.13900
Br1677     Br  0.95762018  0.80734982  0.89377285    -0.06000
Br1678     Br  0.88174633  0.95893807  0.93173585    -0.00400
Br1679     Br  0.80674638  0.77029995  0.86872333     0.00100
Br1680     Br  0.93012448  0.87708434  0.81511698    -0.04300
Br1681     Br  0.99579981  0.86121054  0.94563372     0.00200
Br1682     Br  0.85001328  0.90843857  0.87468277    -0.03600
Br1683     Br  0.85892221  0.80596332  0.92286520    -0.04500
Br1684     Br  0.87586691  0.84564894  0.76073983    -0.00500
C1685       C  0.81795537  0.67740853  0.82496461     0.00900
C1686       C  0.84964224  0.69105729  0.83497084     0.03700
C1687       C  0.86670201  0.67631335  0.86226547    -0.12300
C1688       C  0.85526853  0.64493325  0.87701808     0.23000
C1689       C  0.82469901  0.63004974  0.86653919    -0.12900
C1690       C  0.80535448  0.64692013  0.84148947     0.04400
C1691       C  0.87850033  0.62552213  0.89962627     0.26900
C1692       C  0.90414059  0.60439122  0.88546095    -0.13600
C1693       C  0.92885446  0.58884705  0.90577451     0.04900
C1694       C  0.92699505  0.59243530  0.94077725    -0.09600
C1695       C  0.90215421  0.61484791  0.95492378     0.05800
C1696       C  0.87811854  0.63159543  0.93423750    -0.13900
Br1697     Br  0.81022883  0.58586877  0.88580707    -0.06000
Br1698     Br  0.87368598  0.72624621  0.80896901    -0.00400
Br1699     Br  0.96642235  0.56395132  0.88527466     0.00100
Br1700     Br  0.84463048  0.66295040  0.95299648    -0.04300
Br1701     Br  0.76192865  0.62777788  0.83030777     0.00200
Br1702     Br  0.90715031  0.69813882  0.87876516    -0.03600
Br1703     Br  0.90532188  0.59670038  0.83793560    -0.04500
Br1704     Br  0.90015881  0.62208879  0.50243994    -0.00500
C1705       C  0.57057450  0.92881638  0.92664205     0.00900
C1706       C  0.59530155  0.90307475  0.93390236     0.03700
C1707       C  0.60982048  0.88312174  0.90817980    -0.12300
C1708       C  0.59990200  0.88881513  0.87494445     0.23000
C1709       C  0.57412228  0.91335547  0.86766604    -0.12900
C1710       C  0.55897587  0.93286096  0.89358659     0.04400
C1711       C  0.61913095  0.87097336  0.84794038     0.26900
C1712       C  0.65077981  0.88453035  0.83795569    -0.13600
C1713       C  0.67266805  0.86483078  0.81750863     0.04900
C1714       C  0.66280464  0.83135384  0.80640142    -0.09600
C1715       C  0.63015510  0.81866148  0.81494462     0.05800
C1716       C  0.60837851  0.83851990  0.83570063    -0.13900
Br1717     Br  0.56011954  0.92043923  0.82216909    -0.06000
Br1718     Br  0.60753645  0.89282214  0.97931915    -0.00400
Br1719     Br  0.71621266  0.88447161  0.80500596     0.00100
Br1720     Br  0.56440312  0.82077045  0.84880411    -0.04300
Br1721     Br  0.52237229  0.96504989  0.88371779     0.00200
Br1722     Br  0.64359076  0.84776080  0.91830266    -0.03600
Br1723     Br  0.66461169  0.92977363  0.85384137    -0.04500
Br1724     Br  0.61614524  0.77284071  0.80104585    -0.00500
C1725       C  0.82653174  0.82590154  0.68232287     0.00900
C1726       C  0.85930945  0.81304480  0.67383692     0.03700
C1727       C  0.88078130  0.83240269  0.65221019    -0.12300
C1728       C  0.87123606  0.86619930  0.64142585     0.23000
C1729       C  0.83996710  0.88046611  0.65180033    -0.12900
C1730       C  0.81747631  0.86037137  0.67176179     0.04400
C1731       C  0.89301362  0.88607469  0.61743779     0.26900
C1732       C  0.91849511  0.90852661  0.62856683    -0.13600
C1733       C  0.93770151  0.92869897  0.60540002     0.04900
C1734       C  0.93073742  0.92729171  0.57092042    -0.09600
C1735       C  0.90546819  0.90372816  0.56002454     0.05800
C1736       C  0.88707710  0.88314888  0.58323072    -0.13900
Br1737     Br  0.82834341  0.92792867  0.63853928    -0.06000
Br1738     Br  0.87818925  0.77248839  0.69586577    -0.00400
Br1739     Br  0.97245329  0.95898828  0.62158228     0.00100
Br1740     Br  0.85316363  0.85064403  0.56842093    -0.04300
Br1741     Br  0.77478762  0.88126841  0.68502243     0.00200
Br1742     Br  0.92363562  0.81288443  0.63736491    -0.03600
Br1743     Br  0.92621860  0.91216238  0.67576724    -0.04500
Br1744     Br  0.89564391  0.89752937  0.51342588    -0.00500
loop_ 
_geom_bond_atom_site_label_1 
_geom_bond_atom_site_label_2 
_geom_bond_distance 
_geom_bond_site_symmetry_2 
_ccdc_geom_bond_type 
O1            C9   1.263       .  A
O1          Co21   1.999   1_554  S
O2           C10   1.304       .  A
O2         Co240   2.094       .  S
O3           C11   1.277       .  A
O3         Co895   1.919       .  S
O4           C12   1.262       .  A
O4         Co242   1.994       .  S
O5           C11   1.296       .  A
O5         Co676   2.064       .  S
O6           C12   1.272       .  A
O6         Co457   2.026   1_544  S
O7           C10   1.268       .  A
O7        Co1114   1.884       .  S
O8            C9   1.262       .  A
O8          Co23   1.986       .  S
C9          C208   1.493       .  S
C10          C68   1.484       .  S
C11          C99   1.494       .  S
C12         C119   1.519       .  S
O13          C26   1.258       .  A
O13        Co675   1.954   1_545  S
O14          C27   1.257       .  A
O14        Co458   2.023       .  S
O15          C28   1.274       .  A
O15        Co241   2.023       .  S
O16          C29   1.251       .  A
O16        Co896   1.983       .  S
O17          C29   1.253       .  A
O17         Co22   1.990       .  S
O18          C28   1.264       .  A
O18        Co239   1.977       .  S
O19          C26   1.270       .  A
O19         Co24   2.024       .  S
O20          C27   1.235       .  A
O20       Co1113   1.950       .  S
Co21        O442   2.026   1_556  S
Co21        O667   1.954       .  S
Co21        O236   1.977       .  S
Co21         O25   2.064       .  S
Co22        O220   2.094       .  S
Co22        O659   2.064   1_545  S
Co22        O450   2.023   1_545  S
Co22       O1551   2.242   1_455  S
Co23        O875   1.919       .  S
Co23        O233   2.023   1_554  S
Co23       O1110   1.950   1_554  S
Co23         O25   1.945   1_554  S
Co24        O222   1.994       .  S
Co24       O1097   1.884       .  S
Co24        O888   1.983       .  S
Co24        O679   1.941       .  S
O25       Co1548   2.242   1_556  S
O25        Co678   1.941   1_556  S
C26         C168   1.481       .  S
C27         C179   1.479       .  S
C28         C139   1.491       .  S
C29          C88   1.494       .  S
O30          C38   1.270       .  A
O30         Co50   2.007       .  S
O31          C39   1.244       .  A
O31         Co51   1.969       .  S
O32          C40   1.263       .  A
O32         Co52   1.975       .  S
O33          C41   1.257       .  A
O33         Co53   2.027       .  S
O34          C40   1.273       .  A
O34         Co51   2.022       .  S
O35          C41   1.237       .  A
O35         Co50   1.953       .  S
O36          C39   1.254       .  A
O36         Co53   2.008       .  S
O37          C38   1.268       .  A
O37         Co52   1.988       .  S
C38         C148   1.482       .  S
C39          C79   1.480       .  S
C40         C188   1.485       .  S
C41         C159   1.497       .  S
O42          C55   1.271       .  A
O42         Co50   1.919       .  S
O43          C56   1.264       .  A
O43         Co51   1.987       .  S
O44          C57   1.267       .  A
O44         Co52   2.004       .  S
O45          C58   1.298       .  A
O45         Co53   2.078       .  S
O46          C58   1.274       .  A
O46         Co51   1.898       .  S
O47          C57   1.270       .  A
O47         Co50   1.996       .  S
O48          C55   1.296       .  A
O48         Co53   2.079       .  S
O49          C56   1.271       .  A
O49         Co52   2.030       .  S
Co50         O54   1.930       .  S
Co51         O54   1.940       .  S
Co52         O54   2.074       .  S
Co53         O54   2.258       .  S
C55         C128   1.493       .  S
C56         C108   1.509       .  S
C57         C199   1.492       .  S
C58          C59   1.484       .  S
C59          C60   1.414       .  A
C59          C64   1.409       .  A
C60          C61   1.409       .  A
C60         Br72   1.932       .  S
C61          C62   1.411       .  A
C61         Br76   1.932       .  S
C62          C65   1.490       .  S
C62          C63   1.409       .  A
C63          C64   1.406       .  A
C63         Br71   1.931       .  S
C64         Br75   1.916       .  S
C65          C66   1.409       .  A
C65          C70   1.411       .  A
C66          C67   1.409       .  A
C66         Br77   1.932       .  S
C67          C68   1.415       .  A
C67         Br73   1.929       .  S
C68          C69   1.413       .  A
C69          C70   1.407       .  A
C69         Br78   1.928       .  S
C70         Br74   1.932       .  S
C79          C80   1.411       .  A
C79          C84   1.408       .  A
C80          C81   1.407       .  A
C80         Br92   1.925       .  S
C81          C82   1.408       .  A
C81         Br96   1.932       .  S
C82          C85   1.491       .  S
C82          C83   1.413       .  A
C83          C84   1.412       .  A
C83         Br91   1.927       .  S
C84         Br95   1.929       .  S
C85          C86   1.408       .  A
C85          C90   1.408       .  A
C86          C87   1.413       .  A
C86         Br97   1.932       .  S
C87          C88   1.420       .  A
C87         Br93   1.932       .  S
C88          C89   1.417       .  A
C89          C90   1.409       .  A
C89         Br98   1.930       .  S
C90         Br94   1.932       .  S
C99         C100   1.419       .  A
C99         C104   1.413       .  A
C100        C101   1.411       .  A
C100       Br112   1.933       .  S
C101        C102   1.408       .  A
C101       Br116   1.931       .  S
C102        C105   1.500       .  S
C102        C103   1.414       .  A
C103        C104   1.415       .  A
C103       Br111   1.925       .  S
C104       Br115   1.932       .  S
C105        C106   1.411       .  A
C105        C110   1.406       .  A
C106        C107   1.418       .  A
C106       Br117   1.927       .  S
C107        C108   1.418       .  A
C107       Br113   1.930       .  S
C108        C109   1.425       .  A
C109        C110   1.412       .  A
C109       Br118   1.927       .  S
C110       Br114   1.936       .  S
C119        C120   1.425       .  A
C119        C124   1.427       .  A
C120        C121   1.416       .  A
C120       Br132   1.933       .  S
C121        C122   1.409       .  A
C121       Br136   1.932       .  S
C122        C125   1.504       .  S
C122        C123   1.408       .  A
C123        C124   1.416       .  A
C123       Br131   1.933       .  S
C124       Br135   1.935       .  S
C125        C126   1.411       .  A
C125        C130   1.414       .  A
C126        C127   1.413       .  A
C126       Br137   1.930       .  S
C127        C128   1.413       .  A
C127       Br133   1.927       .  S
C128        C129   1.412       .  A
C129        C130   1.415       .  A
C129       Br138   1.928       .  S
C130       Br134   1.930       .  S
C139        C140   1.419       .  A
C139        C144   1.419       .  A
C140        C141   1.403       .  A
C140       Br152   1.936       .  S
C141        C142   1.405       .  A
C141       Br156   1.936       .  S
C142        C145   1.485       .  S
C142        C143   1.409       .  A
C143        C144   1.414       .  A
C143       Br151   1.930       .  S
C144       Br155   1.931       .  S
C145        C146   1.408       .  A
C145        C150   1.408       .  A
C146        C147   1.408       .  A
C146       Br157   1.929       .  S
C147        C148   1.413       .  A
C147       Br153   1.931       .  S
C148        C149   1.414       .  A
C149        C150   1.408       .  A
C149       Br158   1.930       .  S
C150       Br154   1.931       .  S
C159        C160   1.424       .  A
C159        C164   1.418       .  A
C160        C161   1.402       .  A
C160       Br172   1.931       .  S
C161        C162   1.401       .  A
C161       Br176   1.936       .  S
C162        C165   1.485       .  S
C162        C163   1.410       .  A
C163        C164   1.415       .  A
C163       Br171   1.928       .  S
C164       Br175   1.930       .  S
C165        C166   1.408       .  A
C165        C170   1.410       .  A
C166        C167   1.403       .  A
C166       Br177   1.932       .  S
C167        C168   1.413       .  A
C167       Br173   1.935       .  S
C168        C169   1.414       .  A
C169        C170   1.413       .  A
C169       Br396   1.930       .  S
C170       Br174   1.928       .  S
Br178       C387   1.930   1_554  S
C179        C180   1.410       .  A
C179        C184   1.415       .  A
C180        C181   1.404       .  A
C180       Br192   1.924       .  S
C181        C182   1.408       .  A
C181       Br196   1.932       .  S
C182        C185   1.484       .  S
C182        C183   1.408       .  A
C183        C184   1.411       .  A
C183       Br191   1.929       .  S
C184       Br195   1.931       .  S
C185        C186   1.405       .  A
C185        C190   1.409       .  A
C186        C187   1.404       .  A
C186       Br197   1.934       .  S
C187        C188   1.418       .  A
C187       Br193   1.936       .  S
C188        C189   1.415       .  A
C189        C190   1.412       .  A
C189       Br198   1.930       .  S
C190       Br194   1.930       .  S
C199        C200   1.419       .  A
C199        C204   1.419       .  A
C200        C201   1.407       .  A
C200       Br212   1.920       .  S
C201        C202   1.404       .  A
C201       Br216   1.933       .  S
C202        C205   1.483       .  S
C202        C203   1.405       .  A
C203        C204   1.408       .  A
C203       Br211   1.932       .  S
C204       Br215   1.930       .  S
C205        C206   1.408       .  A
C205        C210   1.401       .  A
C206        C207   1.411       .  A
C206       Br217   1.929       .  S
C207        C208   1.416       .  A
C207       Br213   1.927       .  S
C208        C209   1.426       .  A
C209        C210   1.404       .  A
C209       Br218   1.933       .  S
C210       Br214   1.937       .  S
O219        C227   1.263       .  A
O219       Co239   1.999       .  S
O220        C228   1.304       .  A
O221        C229   1.277       .  A
O221      Co1113   1.919       .  S
O222        C230   1.262       .  A
O223        C229   1.296       .  A
O223       Co458   2.064       .  S
O224        C230   1.272       .  A
O224       Co675   2.026   1_545  S
O225        C228   1.268       .  A
O225       Co896   1.884       .  S
O226        C227   1.262       .  A
O226       Co241   1.986       .  S
C227        C426   1.493       .  S
C228        C286   1.484       .  S
C229        C317   1.494       .  S
C230        C337   1.519       .  S
O231        C244   1.258       .  A
O231       Co457   1.954   1_545  S
O232        C245   1.257       .  A
O232       Co676   2.023   1_556  S
O233        C246   1.274       .  A
O234        C247   1.251       .  A
O234      Co1114   1.983   1_556  S
O235        C247   1.253       .  A
O235       Co240   1.990   1_556  S
O236        C246   1.264       .  A
O237        C244   1.270       .  A
O237       Co242   2.024   1_556  S
O238        C245   1.235       .  A
O238       Co895   1.950   1_556  S
Co239       O660   2.026       .  S
Co239       O449   1.954       .  S
Co239       O243   2.064       .  S
Co240       O441   2.064   1_545  S
Co240       O668   2.023   1_544  S
Co240      O1333   2.242   1_454  S
Co241      O1093   1.919       .  S
Co241       O892   1.950       .  S
Co241       O243   1.945       .  S
Co242       O879   1.884       .  S
Co242      O1106   1.983   1_554  S
Co242       O461   1.941   1_554  S
O243      Co1330   2.242       .  S
O243       Co460   1.941       .  S
C244        C386   1.481       .  S
C245        C397   1.479       .  S
C246        C357   1.491       .  S
C247        C306   1.494       .  S
O248        C256   1.270       .  A
O248       Co268   2.007       .  S
O249        C257   1.244       .  A
O249       Co269   1.969       .  S
O250        C258   1.263       .  A
O250       Co270   1.975       .  S
O251        C259   1.257       .  A
O251       Co271   2.027       .  S
O252        C258   1.273       .  A
O252       Co269   2.022       .  S
O253        C259   1.237       .  A
O253       Co268   1.953       .  S
O254        C257   1.254       .  A
O254       Co271   2.008       .  S
O255        C256   1.268       .  A
O255       Co270   1.988       .  S
C256        C366   1.482       .  S
C257        C297   1.480       .  S
C258        C406   1.485       .  S
C259        C377   1.497       .  S
O260        C273   1.271       .  A
O260       Co268   1.919       .  S
O261        C274   1.264       .  A
O261       Co269   1.987       .  S
O262        C275   1.267       .  A
O262       Co270   2.004       .  S
O263        C276   1.298       .  A
O263       Co271   2.078       .  S
O264        C276   1.274       .  A
O264       Co269   1.898       .  S
O265        C275   1.269       .  A
O265       Co268   1.996       .  S
O266        C273   1.296       .  A
O266       Co271   2.079       .  S
O267        C274   1.271       .  A
O267       Co270   2.030       .  S
Co268       O272   1.930       .  S
Co269       O272   1.940       .  S
Co270       O272   2.074       .  S
Co271       O272   2.258       .  S
C273        C346   1.493       .  S
C274        C326   1.509       .  S
C275        C417   1.492       .  S
C276        C277   1.484       .  S
C277        C278   1.414       .  A
C277        C282   1.409       .  A
C278        C279   1.409       .  A
C278       Br290   1.932       .  S
C279        C280   1.411       .  A
C279       Br294   1.932       .  S
C280        C283   1.490       .  S
C280        C281   1.409       .  A
C281        C282   1.406       .  A
C281       Br289   1.931       .  S
C282       Br293   1.916       .  S
C283        C284   1.409       .  A
C283        C288   1.411       .  A
C284        C285   1.409       .  A
C284       Br295   1.932       .  S
C285        C286   1.415       .  A
C285       Br291   1.929       .  S
C286        C287   1.413       .  A
C287        C288   1.407       .  A
C287       Br296   1.928       .  S
C288       Br292   1.932       .  S
C297        C298   1.411       .  A
C297        C302   1.408       .  A
C298        C299   1.407       .  A
C298       Br310   1.925       .  S
C299        C300   1.408       .  A
C299       Br314   1.932       .  S
C300        C303   1.491       .  S
C300        C301   1.413       .  A
C301        C302   1.412       .  A
C301       Br309   1.927       .  S
C302       Br313   1.929       .  S
C303        C304   1.408       .  A
C303        C308   1.408       .  A
C304        C305   1.413       .  A
C304       Br315   1.932       .  S
C305        C306   1.420       .  A
C305       Br311   1.932       .  S
C306        C307   1.417       .  A
C307        C308   1.409       .  A
C307       Br316   1.930       .  S
C308       Br312   1.932       .  S
C317        C318   1.419       .  A
C317        C322   1.413       .  A
C318        C319   1.411       .  A
C318       Br330   1.933       .  S
C319        C320   1.408       .  A
C319       Br334   1.931       .  S
C320        C323   1.500       .  S
C320        C321   1.414       .  A
C321        C322   1.415       .  A
C321       Br329   1.925       .  S
C322       Br333   1.932       .  S
C323        C324   1.411       .  A
C323        C328   1.406       .  A
C324        C325   1.418       .  A
C324       Br335   1.927       .  S
C325        C326   1.418       .  A
C325       Br331   1.930       .  S
C326        C327   1.425       .  A
C327        C328   1.412       .  A
C327       Br336   1.927       .  S
C328       Br332   1.936       .  S
C337        C338   1.425       .  A
C337        C342   1.427       .  A
C338        C339   1.416       .  A
C338       Br350   1.933       .  S
C339        C340   1.409       .  A
C339       Br354   1.932       .  S
C340        C343   1.504       .  S
C340        C341   1.408       .  A
C341        C342   1.416       .  A
C341       Br349   1.933       .  S
C342       Br353   1.935       .  S
C343        C344   1.411       .  A
C343        C348   1.414       .  A
C344        C345   1.413       .  A
C344       Br355   1.930       .  S
C345        C346   1.413       .  A
C345       Br351   1.927       .  S
C346        C347   1.412       .  A
C347        C348   1.415       .  A
C347       Br356   1.928       .  S
C348       Br352   1.930       .  S
C357        C358   1.419       .  A
C357        C362   1.419       .  A
C358        C359   1.403       .  A
C358       Br370   1.936       .  S
C359        C360   1.405       .  A
C359       Br374   1.936       .  S
C360        C363   1.485       .  S
C360        C361   1.409       .  A
C361        C362   1.414       .  A
C361       Br369   1.930       .  S
C362       Br373   1.931       .  S
C363        C364   1.408       .  A
C363        C368   1.408       .  A
C364        C365   1.408       .  A
C364       Br375   1.929       .  S
C365        C366   1.413       .  A
C365       Br371   1.931       .  S
C366        C367   1.414       .  A
C367        C368   1.408       .  A
C367       Br376   1.930       .  S
C368       Br372   1.931       .  S
C377        C378   1.424       .  A
C377        C382   1.418       .  A
C378        C379   1.402       .  A
C378       Br390   1.931       .  S
C379        C380   1.401       .  A
C379       Br394   1.936       .  S
C380        C383   1.485       .  S
C380        C381   1.410       .  A
C381        C382   1.415       .  A
C381       Br389   1.928       .  S
C382       Br393   1.930       .  S
C383        C384   1.408       .  A
C383        C388   1.410       .  A
C384        C385   1.403       .  A
C384       Br395   1.932       .  S
C385        C386   1.413       .  A
C385       Br391   1.935       .  S
C386        C387   1.414       .  A
C387        C388   1.413       .  A
C388       Br392   1.928       .  S
C397        C398   1.410       .  A
C397        C402   1.415       .  A
C398        C399   1.404       .  A
C398       Br410   1.924       .  S
C399        C400   1.408       .  A
C399       Br414   1.932       .  S
C400        C403   1.484       .  S
C400        C401   1.408       .  A
C401        C402   1.411       .  A
C401       Br409   1.929       .  S
C402       Br413   1.931       .  S
C403        C404   1.405       .  A
C403        C408   1.409       .  A
C404        C405   1.404       .  A
C404       Br415   1.934       .  S
C405        C406   1.418       .  A
C405       Br411   1.936       .  S
C406        C407   1.415       .  A
C407        C408   1.412       .  A
C407       Br416   1.930       .  S
C408       Br412   1.930       .  S
C417        C418   1.419       .  A
C417        C422   1.419       .  A
C418        C419   1.407       .  A
C418       Br430   1.920       .  S
C419        C420   1.404       .  A
C419       Br434   1.933       .  S
C420        C423   1.483       .  S
C420        C421   1.405       .  A
C421        C422   1.408       .  A
C421       Br429   1.932       .  S
C422       Br433   1.930       .  S
C423        C424   1.408       .  A
C423        C428   1.401       .  A
C424        C425   1.411       .  A
C424       Br435   1.929       .  S
C425        C426   1.416       .  A
C425       Br431   1.927       .  S
C426        C427   1.426       .  A
C427        C428   1.404       .  A
C427       Br436   1.933       .  S
C428       Br432   1.937       .  S
O437        C445   1.263       .  A
O437       Co457   1.999   1_554  S
O438        C446   1.304       .  A
O438       Co676   2.094       .  S
O439        C447   1.277       .  A
O439      Co1331   1.919       .  S
O440        C448   1.262       .  A
O440       Co678   1.994       .  S
O441        C447   1.296       .  A
O442        C448   1.272       .  A
O443        C446   1.268       .  A
O443      Co1550   1.884       .  S
O444        C445   1.262       .  A
O444       Co459   1.986       .  S
C445        C644   1.493       .  S
C446        C504   1.484       .  S
C447        C535   1.494       .  S
C448        C555   1.519       .  S
O449        C462   1.258       .  A
O450        C463   1.257       .  A
O451        C464   1.274       .  A
O451       Co677   2.023       .  S
O452        C465   1.251       .  A
O452      Co1332   1.983       .  S
O453        C465   1.253       .  A
O453       Co458   1.990       .  S
O454        C464   1.264       .  A
O454       Co675   1.977       .  S
O455        C462   1.270       .  A
O455       Co460   2.024       .  S
O456        C463   1.235       .  A
O456      Co1549   1.950       .  S
Co457       O672   1.977       .  S
Co457       O461   2.064   1_565  S
Co458       O656   2.094       .  S
Co458      O1115   2.242   1_455  S
Co459      O1311   1.919       .  S
Co459       O669   2.023   1_554  S
Co459      O1546   1.950   1_554  S
Co459       O461   1.945   1_564  S
Co460       O658   1.994       .  S
Co460      O1533   1.884       .  S
Co460      O1324   1.983       .  S
O461      Co1112   2.242   1_556  S
C462        C604   1.481       .  S
C463        C615   1.479       .  S
C464        C575   1.491       .  S
C465        C524   1.494       .  S
O466        C474   1.270       .  A
O466       Co486   2.007       .  S
O467        C475   1.244       .  A
O467       Co487   1.969       .  S
O468        C476   1.263       .  A
O468       Co488   1.975       .  S
O469        C477   1.257       .  A
O469       Co489   2.027       .  S
O470        C476   1.273       .  A
O470       Co487   2.022       .  S
O471        C477   1.237       .  A
O471       Co486   1.953       .  S
O472        C475   1.254       .  A
O472       Co489   2.008       .  S
O473        C474   1.268       .  A
O473       Co488   1.988       .  S
C474        C584   1.482       .  S
C475        C515   1.480       .  S
C476        C624   1.485       .  S
C477        C595   1.497       .  S
O478        C491   1.271       .  A
O478       Co486   1.919       .  S
O479        C492   1.264       .  A
O479       Co487   1.987       .  S
O480        C493   1.267       .  A
O480       Co488   2.004       .  S
O481        C494   1.298       .  A
O481       Co489   2.078       .  S
O482        C494   1.274       .  A
O482       Co487   1.898       .  S
O483        C493   1.269       .  A
O483       Co486   1.996       .  S
O484        C491   1.296       .  A
O484       Co489   2.079       .  S
O485        C492   1.271       .  A
O485       Co488   2.030       .  S
Co486       O490   1.930       .  S
Co487       O490   1.940       .  S
Co488       O490   2.074       .  S
Co489       O490   2.258       .  S
C491        C564   1.493       .  S
C492        C544   1.509       .  S
C493        C635   1.492       .  S
C494        C495   1.484       .  S
C495        C496   1.414       .  A
C495        C500   1.409       .  A
C496        C497   1.409       .  A
C496       Br508   1.932       .  S
C497        C498   1.411       .  A
C497       Br512   1.932       .  S
C498        C501   1.490       .  S
C498        C499   1.409       .  A
C499        C500   1.406       .  A
C499       Br507   1.931       .  S
C500       Br511   1.916       .  S
C501        C502   1.409       .  A
C501        C506   1.411       .  A
C502        C503   1.409       .  A
C502       Br513   1.932       .  S
C503        C504   1.415       .  A
C503       Br509   1.929       .  S
C504        C505   1.413       .  A
C505        C506   1.407       .  A
C505       Br514   1.928       .  S
C506       Br510   1.932       .  S
C515        C516   1.411       .  A
C515        C520   1.408       .  A
C516        C517   1.407       .  A
C516       Br528   1.925       .  S
C517        C518   1.408       .  A
C517       Br532   1.932       .  S
C518        C521   1.491       .  S
C518        C519   1.413       .  A
C519        C520   1.412       .  A
C519       Br527   1.927       .  S
C520       Br531   1.929       .  S
C521        C522   1.408       .  A
C521        C526   1.408       .  A
C522        C523   1.413       .  A
C522       Br533   1.932       .  S
C523        C524   1.420       .  A
C523       Br529   1.932       .  S
C524        C525   1.417       .  A
C525        C526   1.409       .  A
C525       Br534   1.930       .  S
C526       Br530   1.932       .  S
C535        C536   1.419       .  A
C535        C540   1.413       .  A
C536        C537   1.411       .  A
C536       Br548   1.933       .  S
C537        C538   1.408       .  A
C537       Br552   1.931       .  S
C538        C541   1.500       .  S
C538        C539   1.414       .  A
C539        C540   1.415       .  A
C539       Br547   1.925       .  S
C540       Br551   1.932       .  S
C541        C542   1.411       .  A
C541        C546   1.406       .  A
C542        C543   1.418       .  A
C542       Br553   1.927       .  S
C543        C544   1.418       .  A
C543       Br549   1.930       .  S
C544        C545   1.425       .  A
C545        C546   1.412       .  A
C545       Br554   1.927       .  S
C546       Br550   1.936       .  S
C555        C556   1.425       .  A
C555        C560   1.427       .  A
C556        C557   1.416       .  A
C556       Br568   1.933       .  S
C557        C558   1.409       .  A
C557       Br572   1.932       .  S
C558        C561   1.504       .  S
C558        C559   1.408       .  A
C559        C560   1.416       .  A
C559       Br567   1.933       .  S
C560       Br571   1.935       .  S
C561        C562   1.411       .  A
C561        C566   1.414       .  A
C562        C563   1.413       .  A
C562       Br573   1.930       .  S
C563        C564   1.413       .  A
C563       Br569   1.927       .  S
C564        C565   1.412       .  A
C565        C566   1.415       .  A
C565       Br574   1.928       .  S
C566       Br570   1.930       .  S
C575        C576   1.419       .  A
C575        C580   1.419       .  A
C576        C577   1.403       .  A
C576       Br588   1.936       .  S
C577        C578   1.405       .  A
C577       Br592   1.936       .  S
C578        C581   1.485       .  S
C578        C579   1.409       .  A
C579        C580   1.414       .  A
C579       Br587   1.930       .  S
C580       Br591   1.931       .  S
C581        C582   1.408       .  A
C581        C586   1.408       .  A
C582        C583   1.408       .  A
C582       Br593   1.929       .  S
C583        C584   1.413       .  A
C583       Br589   1.931       .  S
C584        C585   1.414       .  A
C585        C586   1.408       .  A
C585       Br594   1.930       .  S
C586       Br590   1.931       .  S
C595        C596   1.424       .  A
C595        C600   1.418       .  A
C596        C597   1.402       .  A
C596       Br608   1.931       .  S
C597        C598   1.401       .  A
C597       Br612   1.936       .  S
C598        C601   1.485       .  S
C598        C599   1.410       .  A
C599        C600   1.415       .  A
C599       Br607   1.928       .  S
C600       Br611   1.930       .  S
C601        C602   1.408       .  A
C601        C606   1.410       .  A
C602        C603   1.403       .  A
C602       Br613   1.932       .  S
C603        C604   1.413       .  A
C603       Br609   1.935       .  S
C604        C605   1.414       .  A
C605        C606   1.413       .  A
C605       Br832   1.930       .  S
C606       Br610   1.928       .  S
Br614       C823   1.930   1_554  S
C615        C616   1.410       .  A
C615        C620   1.415       .  A
C616        C617   1.404       .  A
C616       Br628   1.924       .  S
C617        C618   1.408       .  A
C617       Br632   1.932       .  S
C618        C621   1.484       .  S
C618        C619   1.408       .  A
C619        C620   1.411       .  A
C619       Br627   1.929       .  S
C620       Br631   1.931       .  S
C621        C622   1.405       .  A
C621        C626   1.409       .  A
C622        C623   1.404       .  A
C622       Br633   1.934       .  S
C623        C624   1.418       .  A
C623       Br629   1.936       .  S
C624        C625   1.415       .  A
C625        C626   1.412       .  A
C625       Br634   1.930       .  S
C626       Br630   1.930       .  S
C635        C636   1.419       .  A
C635        C640   1.419       .  A
C636        C637   1.407       .  A
C636       Br648   1.920       .  S
C637        C638   1.404       .  A
C637       Br652   1.933       .  S
C638        C641   1.483       .  S
C638        C639   1.405       .  A
C639        C640   1.408       .  A
C639       Br647   1.932       .  S
C640       Br651   1.930       .  S
C641        C642   1.408       .  A
C641        C646   1.401       .  A
C642        C643   1.411       .  A
C642       Br653   1.929       .  S
C643        C644   1.416       .  A
C643       Br649   1.927       .  S
C644        C645   1.426       .  A
C645        C646   1.404       .  A
C645       Br654   1.933       .  S
C646       Br650   1.937       .  S
O655        C663   1.263       .  A
O655       Co675   1.999       .  S
O656        C664   1.304       .  A
O657        C665   1.277       .  A
O657      Co1549   1.919       .  S
O658        C666   1.262       .  A
O659        C665   1.296       .  A
O660        C666   1.272       .  A
O661        C664   1.268       .  A
O661      Co1332   1.884       .  S
O662        C663   1.262       .  A
O662       Co677   1.986       .  S
C663        C862   1.493       .  S
C664        C722   1.484       .  S
C665        C753   1.494       .  S
C666        C773   1.519       .  S
O667        C680   1.258       .  A
O668        C681   1.257       .  A
O669        C682   1.274       .  A
O670        C683   1.251       .  A
O670      Co1550   1.983   1_556  S
O671        C683   1.253       .  A
O671       Co676   1.990   1_556  S
O672        C682   1.264       .  A
O673        C680   1.270       .  A
O673       Co678   2.024   1_556  S
O674        C681   1.235       .  A
O674      Co1331   1.950   1_556  S
Co675       O679   2.064   1_565  S
Co676       O897   2.242   1_454  S
Co677      O1529   1.919       .  S
Co677      O1328   1.950       .  S
Co677       O679   1.945   1_565  S
Co678      O1315   1.884       .  S
Co678      O1542   1.983   1_554  S
O679       Co894   2.242       .  S
C680        C822   1.481       .  S
C681        C833   1.479       .  S
C682        C793   1.491       .  S
C683        C742   1.494       .  S
O684        C692   1.270       .  A
O684       Co704   2.007       .  S
O685        C693   1.244       .  A
O685       Co705   1.969       .  S
O686        C694   1.263       .  A
O686       Co706   1.975       .  S
O687        C695   1.257       .  A
O687       Co707   2.027       .  S
O688        C694   1.273       .  A
O688       Co705   2.022       .  S
O689        C695   1.237       .  A
O689       Co704   1.953       .  S
O690        C693   1.254       .  A
O690       Co707   2.008       .  S
O691        C692   1.268       .  A
O691       Co706   1.988       .  S
C692        C802   1.482       .  S
C693        C733   1.480       .  S
C694        C842   1.485       .  S
C695        C813   1.497       .  S
O696        C709   1.271       .  A
O696       Co704   1.919       .  S
O697        C710   1.264       .  A
O697       Co705   1.987       .  S
O698        C711   1.267       .  A
O698       Co706   2.004       .  S
O699        C712   1.298       .  A
O699       Co707   2.078       .  S
O700        C712   1.274       .  A
O700       Co705   1.898       .  S
O701        C711   1.269       .  A
O701       Co704   1.996       .  S
O702        C709   1.296       .  A
O702       Co707   2.079       .  S
O703        C710   1.271       .  A
O703       Co706   2.030       .  S
Co704       O708   1.930       .  S
Co705       O708   1.940       .  S
Co706       O708   2.074       .  S
Co707       O708   2.258       .  S
C709        C782   1.493       .  S
C710        C762   1.509       .  S
C711        C853   1.492       .  S
C712        C713   1.484       .  S
C713        C714   1.414       .  A
C713        C718   1.409       .  A
C714        C715   1.409       .  A
C714       Br726   1.932       .  S
C715        C716   1.411       .  A
C715       Br730   1.932       .  S
C716        C719   1.490       .  S
C716        C717   1.409       .  A
C717        C718   1.406       .  A
C717       Br725   1.931       .  S
C718       Br729   1.916       .  S
C719        C720   1.409       .  A
C719        C724   1.411       .  A
C720        C721   1.409       .  A
C720       Br731   1.932       .  S
C721        C722   1.415       .  A
C721       Br727   1.929       .  S
C722        C723   1.413       .  A
C723        C724   1.407       .  A
C723       Br732   1.928       .  S
C724       Br728   1.932       .  S
C733        C734   1.411       .  A
C733        C738   1.408       .  A
C734        C735   1.407       .  A
C734       Br746   1.925       .  S
C735        C736   1.408       .  A
C735       Br750   1.932       .  S
C736        C739   1.491       .  S
C736        C737   1.413       .  A
C737        C738   1.412       .  A
C737       Br745   1.927       .  S
C738       Br749   1.929       .  S
C739        C740   1.408       .  A
C739        C744   1.408       .  A
C740        C741   1.413       .  A
C740       Br751   1.932       .  S
C741        C742   1.420       .  A
C741       Br747   1.932       .  S
C742        C743   1.417       .  A
C743        C744   1.409       .  A
C743       Br752   1.930       .  S
C744       Br748   1.932       .  S
C753        C754   1.419       .  A
C753        C758   1.413       .  A
C754        C755   1.411       .  A
C754       Br766   1.933       .  S
C755        C756   1.408       .  A
C755       Br770   1.931       .  S
C756        C759   1.500       .  S
C756        C757   1.414       .  A
C757        C758   1.415       .  A
C757       Br765   1.925       .  S
C758       Br769   1.932       .  S
C759        C760   1.411       .  A
C759        C764   1.406       .  A
C760        C761   1.418       .  A
C760       Br771   1.927       .  S
C761        C762   1.418       .  A
C761       Br767   1.930       .  S
C762        C763   1.425       .  A
C763        C764   1.412       .  A
C763       Br772   1.927       .  S
C764       Br768   1.936       .  S
C773        C774   1.425       .  A
C773        C778   1.427       .  A
C774        C775   1.416       .  A
C774       Br786   1.933       .  S
C775        C776   1.409       .  A
C775       Br790   1.932       .  S
C776        C779   1.504       .  S
C776        C777   1.408       .  A
C777        C778   1.416       .  A
C777       Br785   1.933       .  S
C778       Br789   1.935       .  S
C779        C780   1.411       .  A
C779        C784   1.414       .  A
C780        C781   1.413       .  A
C780       Br791   1.930       .  S
C781        C782   1.413       .  A
C781       Br787   1.927       .  S
C782        C783   1.412       .  A
C783        C784   1.415       .  A
C783       Br792   1.928       .  S
C784       Br788   1.930       .  S
C793        C794   1.419       .  A
C793        C798   1.419       .  A
C794        C795   1.403       .  A
C794       Br806   1.936       .  S
C795        C796   1.405       .  A
C795       Br810   1.936       .  S
C796        C799   1.485       .  S
C796        C797   1.409       .  A
C797        C798   1.414       .  A
C797       Br805   1.930       .  S
C798       Br809   1.931       .  S
C799        C800   1.408       .  A
C799        C804   1.408       .  A
C800        C801   1.408       .  A
C800       Br811   1.929       .  S
C801        C802   1.413       .  A
C801       Br807   1.931       .  S
C802        C803   1.414       .  A
C803        C804   1.408       .  A
C803       Br812   1.930       .  S
C804       Br808   1.931       .  S
C813        C814   1.424       .  A
C813        C818   1.418       .  A
C814        C815   1.402       .  A
C814       Br826   1.931       .  S
C815        C816   1.401       .  A
C815       Br830   1.936       .  S
C816        C819   1.485       .  S
C816        C817   1.410       .  A
C817        C818   1.415       .  A
C817       Br825   1.928       .  S
C818       Br829   1.930       .  S
C819        C820   1.408       .  A
C819        C824   1.410       .  A
C820        C821   1.403       .  A
C820       Br831   1.932       .  S
C821        C822   1.413       .  A
C821       Br827   1.935       .  S
C822        C823   1.414       .  A
C823        C824   1.413       .  A
C824       Br828   1.928       .  S
C833        C834   1.410       .  A
C833        C838   1.415       .  A
C834        C835   1.404       .  A
C834       Br846   1.924       .  S
C835        C836   1.408       .  A
C835       Br850   1.932       .  S
C836        C839   1.484       .  S
C836        C837   1.408       .  A
C837        C838   1.411       .  A
C837       Br845   1.929       .  S
C838       Br849   1.931       .  S
C839        C840   1.405       .  A
C839        C844   1.409       .  A
C840        C841   1.404       .  A
C840       Br851   1.934       .  S
C841        C842   1.418       .  A
C841       Br847   1.936       .  S
C842        C843   1.415       .  A
C843        C844   1.412       .  A
C843       Br852   1.930       .  S
C844       Br848   1.930       .  S
C853        C854   1.419       .  A
C853        C858   1.419       .  A
C854        C855   1.407       .  A
C854       Br866   1.920       .  S
C855        C856   1.404       .  A
C855       Br870   1.933       .  S
C856        C859   1.483       .  S
C856        C857   1.405       .  A
C857        C858   1.408       .  A
C857       Br865   1.932       .  S
C858       Br869   1.930       .  S
C859        C860   1.408       .  A
C859        C864   1.401       .  A
C860        C861   1.411       .  A
C860       Br871   1.929       .  S
C861        C862   1.416       .  A
C861       Br867   1.927       .  S
C862        C863   1.426       .  A
C863        C864   1.404       .  A
C863       Br872   1.933       .  S
C864       Br868   1.937       .  S
O873        C881   1.263       .  A
O873       Co893   1.999   1_554  S
O874        C882   1.304       .  A
O874      Co1112   2.094       .  S
O875        C883   1.277       .  A
O876        C884   1.262       .  A
O876      Co1114   1.994   1_655  S
O877        C883   1.296       .  A
O877      Co1548   2.064       .  S
O878        C884   1.272       .  A
O878      Co1329   2.026   1_544  S
O879        C882   1.268       .  A
O880        C881   1.262       .  A
O880       Co895   1.986   1_655  S
C881       C1080   1.493       .  S
C882        C940   1.484       .  S
C883        C971   1.494       .  S
C884        C991   1.519       .  S
O885        C898   1.258       .  A
O885      Co1547   1.954   1_545  S
O886        C899   1.257       .  A
O886      Co1330   2.023       .  S
O887        C900   1.274       .  A
O887      Co1113   2.023   1_655  S
O888        C901   1.251       .  A
O889        C901   1.253       .  A
O889       Co894   1.990       .  S
O890        C900   1.264       .  A
O890      Co1111   1.977       .  S
O891        C898   1.270       .  A
O891       Co896   2.024   1_655  S
O892        C899   1.235       .  A
Co893      O1314   2.026   1_556  S
Co893      O1539   1.954       .  S
Co893      O1108   1.977       .  S
Co893       O897   2.064       .  S
Co894      O1092   2.094       .  S
Co894      O1531   2.064   1_545  S
Co894      O1322   2.023   1_545  S
Co895      O1105   2.023   1_454  S
Co895       O897   1.945   1_454  S
Co896      O1094   1.994   1_455  S
Co896      O1551   1.941   1_455  S
O897      Co1550   1.941   1_656  S
C898       C1040   1.481       .  S
C899       C1051   1.479       .  S
C900       C1011   1.491       .  S
C901        C960   1.494       .  S
O902        C910   1.270       .  A
O902       Co922   2.007       .  S
O903        C911   1.244       .  A
O903       Co923   1.969       .  S
O904        C912   1.263       .  A
O904       Co924   1.975       .  S
O905        C913   1.257       .  A
O905       Co925   2.027       .  S
O906        C912   1.273       .  A
O906       Co923   2.022       .  S
O907        C913   1.237       .  A
O907       Co922   1.953       .  S
O908        C911   1.254       .  A
O908       Co925   2.008       .  S
O909        C910   1.268       .  A
O909       Co924   1.988       .  S
C910       C1020   1.482       .  S
C911        C951   1.480       .  S
C912       C1060   1.485       .  S
C913       C1031   1.497       .  S
O914        C927   1.271       .  A
O914       Co922   1.919       .  S
O915        C928   1.264       .  A
O915       Co923   1.987       .  S
O916        C929   1.267       .  A
O916       Co924   2.004       .  S
O917        C930   1.298       .  A
O917       Co925   2.078       .  S
O918        C930   1.274       .  A
O918       Co923   1.898       .  S
O919        C929   1.270       .  A
O919       Co922   1.996       .  S
O920        C927   1.296       .  A
O920       Co925   2.079       .  S
O921        C928   1.271       .  A
O921       Co924   2.030       .  S
Co922       O926   1.930       .  S
Co923       O926   1.940       .  S
Co924       O926   2.074       .  S
Co925       O926   2.258       .  S
C927       C1000   1.493       .  S
C928        C980   1.509       .  S
C929       C1071   1.492       .  S
C930        C931   1.484       .  S
C931        C932   1.414       .  A
C931        C936   1.409       .  A
C932        C933   1.409       .  A
C932       Br944   1.932       .  S
C933        C934   1.411       .  A
C933       Br948   1.932       .  S
C934        C937   1.490       .  S
C934        C935   1.409       .  A
C935        C936   1.406       .  A
C935       Br943   1.931       .  S
C936       Br947   1.916       .  S
C937        C938   1.409       .  A
C937        C942   1.411       .  A
C938        C939   1.409       .  A
C938       Br949   1.932       .  S
C939        C940   1.415       .  A
C939       Br945   1.929       .  S
C940        C941   1.413       .  A
C941        C942   1.407       .  A
C941       Br950   1.928       .  S
C942       Br946   1.932       .  S
C951        C952   1.411       .  A
C951        C956   1.408       .  A
C952        C953   1.407       .  A
C952       Br964   1.925       .  S
C953        C954   1.408       .  A
C953       Br968   1.932       .  S
C954        C957   1.491       .  S
C954        C955   1.413       .  A
C955        C956   1.412       .  A
C955       Br963   1.927       .  S
C956       Br967   1.929       .  S
C957        C958   1.408       .  A
C957        C962   1.408       .  A
C958        C959   1.413       .  A
C958       Br969   1.932       .  S
C959        C960   1.420       .  A
C959       Br965   1.932       .  S
C960        C961   1.417       .  A
C961        C962   1.409       .  A
C961       Br970   1.930       .  S
C962       Br966   1.932       .  S
C971        C972   1.419       .  A
C971        C976   1.413       .  A
C972        C973   1.411       .  A
C972       Br984   1.933       .  S
C973        C974   1.408       .  A
C973       Br988   1.931       .  S
C974        C977   1.500       .  S
C974        C975   1.414       .  A
C975        C976   1.415       .  A
C975       Br983   1.925       .  S
C976       Br987   1.932       .  S
C977        C978   1.411       .  A
C977        C982   1.406       .  A
C978        C979   1.418       .  A
C978       Br989   1.927       .  S
C979        C980   1.418       .  A
C979       Br985   1.930       .  S
C980        C981   1.425       .  A
C981        C982   1.412       .  A
C981       Br990   1.927       .  S
C982       Br986   1.936       .  S
C991        C992   1.425       .  A
C991        C996   1.427       .  A
C992        C993   1.416       .  A
C992      Br1004   1.933       .  S
C993        C994   1.409       .  A
C993      Br1008   1.932       .  S
C994        C997   1.504       .  S
C994        C995   1.408       .  A
C995        C996   1.416       .  A
C995      Br1003   1.933       .  S
C996      Br1007   1.935       .  S
C997        C998   1.411       .  A
C997       C1002   1.414       .  A
C998        C999   1.413       .  A
C998      Br1009   1.930       .  S
C999       C1000   1.413       .  A
C999      Br1005   1.927       .  S
C1000      C1001   1.412       .  A
C1001      C1002   1.415       .  A
C1001     Br1010   1.928       .  S
C1002     Br1006   1.930       .  S
C1011      C1012   1.419       .  A
C1011      C1016   1.419       .  A
C1012      C1013   1.403       .  A
C1012     Br1024   1.936       .  S
C1013      C1014   1.405       .  A
C1013     Br1028   1.936       .  S
C1014      C1017   1.485       .  S
C1014      C1015   1.409       .  A
C1015      C1016   1.414       .  A
C1015     Br1023   1.930       .  S
C1016     Br1027   1.931       .  S
C1017      C1018   1.408       .  A
C1017      C1022   1.408       .  A
C1018      C1019   1.408       .  A
C1018     Br1029   1.929       .  S
C1019      C1020   1.413       .  A
C1019     Br1025   1.931       .  S
C1020      C1021   1.414       .  A
C1021      C1022   1.408       .  A
C1021     Br1030   1.930       .  S
C1022     Br1026   1.931       .  S
C1031      C1032   1.424       .  A
C1031      C1036   1.418       .  A
C1032      C1033   1.402       .  A
C1032     Br1044   1.931       .  S
C1033      C1034   1.401       .  A
C1033     Br1048   1.936       .  S
C1034      C1037   1.485       .  S
C1034      C1035   1.410       .  A
C1035      C1036   1.415       .  A
C1035     Br1043   1.928       .  S
C1036     Br1047   1.930       .  S
C1037      C1038   1.408       .  A
C1037      C1042   1.410       .  A
C1038      C1039   1.403       .  A
C1038     Br1049   1.932       .  S
C1039      C1040   1.413       .  A
C1039     Br1045   1.935       .  S
C1040      C1041   1.414       .  A
C1041      C1042   1.413       .  A
C1041     Br1268   1.930       .  S
C1042     Br1046   1.928       .  S
Br1050     C1259   1.930   1_554  S
C1051      C1052   1.410       .  A
C1051      C1056   1.415       .  A
C1052      C1053   1.404       .  A
C1052     Br1064   1.924       .  S
C1053      C1054   1.408       .  A
C1053     Br1068   1.932       .  S
C1054      C1057   1.484       .  S
C1054      C1055   1.408       .  A
C1055      C1056   1.411       .  A
C1055     Br1063   1.929       .  S
C1056     Br1067   1.931       .  S
C1057      C1058   1.405       .  A
C1057      C1062   1.409       .  A
C1058      C1059   1.404       .  A
C1058     Br1069   1.934       .  S
C1059      C1060   1.418       .  A
C1059     Br1065   1.936       .  S
C1060      C1061   1.415       .  A
C1061      C1062   1.412       .  A
C1061     Br1070   1.930       .  S
C1062     Br1066   1.930       .  S
C1071      C1072   1.419       .  A
C1071      C1076   1.419       .  A
C1072      C1073   1.407       .  A
C1072     Br1084   1.920       .  S
C1073      C1074   1.404       .  A
C1073     Br1088   1.933       .  S
C1074      C1077   1.483       .  S
C1074      C1075   1.405       .  A
C1075      C1076   1.408       .  A
C1075     Br1083   1.932       .  S
C1076     Br1087   1.930       .  S
C1077      C1078   1.408       .  A
C1077      C1082   1.401       .  A
C1078      C1079   1.411       .  A
C1078     Br1089   1.929       .  S
C1079      C1080   1.416       .  A
C1079     Br1085   1.927       .  S
C1080      C1081   1.426       .  A
C1081      C1082   1.404       .  A
C1081     Br1090   1.933       .  S
C1082     Br1086   1.937       .  S
O1091      C1099   1.263       .  A
O1091     Co1111   1.999       .  S
O1092      C1100   1.304       .  A
O1093      C1101   1.277       .  A
O1094      C1102   1.262       .  A
O1095      C1101   1.296       .  A
O1095     Co1330   2.064       .  S
O1096      C1102   1.272       .  A
O1096     Co1547   2.026   1_545  S
O1097      C1100   1.268       .  A
O1098      C1099   1.262       .  A
O1098     Co1113   1.986   1_655  S
C1099      C1298   1.493       .  S
C1100      C1158   1.484       .  S
C1101      C1189   1.494       .  S
C1102      C1209   1.519       .  S
O1103      C1116   1.258       .  A
O1103     Co1329   1.954   1_545  S
O1104      C1117   1.257       .  A
O1104     Co1548   2.023   1_556  S
O1105      C1118   1.274       .  A
O1106      C1119   1.251       .  A
O1107      C1119   1.253       .  A
O1107     Co1112   1.990   1_556  S
O1108      C1118   1.264       .  A
O1109      C1116   1.270       .  A
O1109     Co1114   2.024   1_656  S
O1110      C1117   1.235       .  A
Co1111     O1532   2.026       .  S
Co1111     O1321   1.954       .  S
Co1111     O1115   2.064       .  S
Co1112     O1313   2.064   1_545  S
Co1112     O1540   2.023   1_544  S
Co1113     O1115   1.945   1_455  S
Co1114     O1333   1.941   1_454  S
O1115     Co1332   1.941   1_655  S
C1116      C1258   1.481       .  S
C1117      C1269   1.479       .  S
C1118      C1229   1.491       .  S
C1119      C1178   1.494       .  S
O1120      C1128   1.270       .  A
O1120     Co1140   2.007       .  S
O1121      C1129   1.244       .  A
O1121     Co1141   1.969       .  S
O1122      C1130   1.263       .  A
O1122     Co1142   1.975       .  S
O1123      C1131   1.257       .  A
O1123     Co1143   2.027       .  S
O1124      C1130   1.273       .  A
O1124     Co1141   2.022       .  S
O1125      C1131   1.237       .  A
O1125     Co1140   1.953       .  S
O1126      C1129   1.254       .  A
O1126     Co1143   2.008       .  S
O1127      C1128   1.268       .  A
O1127     Co1142   1.988       .  S
C1128      C1238   1.482       .  S
C1129      C1169   1.480       .  S
C1130      C1278   1.485       .  S
C1131      C1249   1.497       .  S
O1132      C1145   1.271       .  A
O1132     Co1140   1.919       .  S
O1133      C1146   1.264       .  A
O1133     Co1141   1.987       .  S
O1134      C1147   1.267       .  A
O1134     Co1142   2.004       .  S
O1135      C1148   1.298       .  A
O1135     Co1143   2.078       .  S
O1136      C1148   1.274       .  A
O1136     Co1141   1.898       .  S
O1137      C1147   1.270       .  A
O1137     Co1140   1.996       .  S
O1138      C1145   1.296       .  A
O1138     Co1143   2.079       .  S
O1139      C1146   1.271       .  A
O1139     Co1142   2.030       .  S
Co1140     O1144   1.930       .  S
Co1141     O1144   1.940       .  S
Co1142     O1144   2.074       .  S
Co1143     O1144   2.258       .  S
C1145      C1218   1.493       .  S
C1146      C1198   1.509       .  S
C1147      C1289   1.492       .  S
C1148      C1149   1.484       .  S
C1149      C1150   1.414       .  A
C1149      C1154   1.409       .  A
C1150      C1151   1.409       .  A
C1150     Br1162   1.932       .  S
C1151      C1152   1.411       .  A
C1151     Br1166   1.932       .  S
C1152      C1155   1.490       .  S
C1152      C1153   1.409       .  A
C1153      C1154   1.406       .  A
C1153     Br1161   1.931       .  S
C1154     Br1165   1.916       .  S
C1155      C1156   1.409       .  A
C1155      C1160   1.411       .  A
C1156      C1157   1.409       .  A
C1156     Br1167   1.932       .  S
C1157      C1158   1.415       .  A
C1157     Br1163   1.929       .  S
C1158      C1159   1.413       .  A
C1159      C1160   1.407       .  A
C1159     Br1168   1.928       .  S
C1160     Br1164   1.932       .  S
C1169      C1170   1.411       .  A
C1169      C1174   1.408       .  A
C1170      C1171   1.407       .  A
C1170     Br1182   1.925       .  S
C1171      C1172   1.408       .  A
C1171     Br1186   1.932       .  S
C1172      C1175   1.491       .  S
C1172      C1173   1.413       .  A
C1173      C1174   1.412       .  A
C1173     Br1181   1.927       .  S
C1174     Br1185   1.929       .  S
C1175      C1176   1.408       .  A
C1175      C1180   1.408       .  A
C1176      C1177   1.413       .  A
C1176     Br1187   1.932       .  S
C1177      C1178   1.420       .  A
C1177     Br1183   1.932       .  S
C1178      C1179   1.417       .  A
C1179      C1180   1.409       .  A
C1179     Br1188   1.930       .  S
C1180     Br1184   1.932       .  S
C1189      C1190   1.419       .  A
C1189      C1194   1.413       .  A
C1190      C1191   1.411       .  A
C1190     Br1202   1.933       .  S
C1191      C1192   1.408       .  A
C1191     Br1206   1.931       .  S
C1192      C1195   1.500       .  S
C1192      C1193   1.414       .  A
C1193      C1194   1.415       .  A
C1193     Br1201   1.925       .  S
C1194     Br1205   1.932       .  S
C1195      C1196   1.411       .  A
C1195      C1200   1.406       .  A
C1196      C1197   1.418       .  A
C1196     Br1207   1.927       .  S
C1197      C1198   1.418       .  A
C1197     Br1203   1.930       .  S
C1198      C1199   1.425       .  A
C1199      C1200   1.412       .  A
C1199     Br1208   1.927       .  S
C1200     Br1204   1.936       .  S
C1209      C1210   1.425       .  A
C1209      C1214   1.427       .  A
C1210      C1211   1.416       .  A
C1210     Br1222   1.933       .  S
C1211      C1212   1.409       .  A
C1211     Br1226   1.932       .  S
C1212      C1215   1.504       .  S
C1212      C1213   1.408       .  A
C1213      C1214   1.416       .  A
C1213     Br1221   1.933       .  S
C1214     Br1225   1.935       .  S
C1215      C1216   1.411       .  A
C1215      C1220   1.414       .  A
C1216      C1217   1.413       .  A
C1216     Br1227   1.930       .  S
C1217      C1218   1.413       .  A
C1217     Br1223   1.927       .  S
C1218      C1219   1.412       .  A
C1219      C1220   1.415       .  A
C1219     Br1228   1.928       .  S
C1220     Br1224   1.930       .  S
C1229      C1230   1.419       .  A
C1229      C1234   1.419       .  A
C1230      C1231   1.403       .  A
C1230     Br1242   1.936       .  S
C1231      C1232   1.405       .  A
C1231     Br1246   1.936       .  S
C1232      C1235   1.485       .  S
C1232      C1233   1.409       .  A
C1233      C1234   1.414       .  A
C1233     Br1241   1.930       .  S
C1234     Br1245   1.931       .  S
C1235      C1236   1.408       .  A
C1235      C1240   1.408       .  A
C1236      C1237   1.408       .  A
C1236     Br1247   1.929       .  S
C1237      C1238   1.413       .  A
C1237     Br1243   1.931       .  S
C1238      C1239   1.414       .  A
C1239      C1240   1.408       .  A
C1239     Br1248   1.930       .  S
C1240     Br1244   1.931       .  S
C1249      C1250   1.424       .  A
C1249      C1254   1.418       .  A
C1250      C1251   1.402       .  A
C1250     Br1262   1.931       .  S
C1251      C1252   1.401       .  A
C1251     Br1266   1.936       .  S
C1252      C1255   1.485       .  S
C1252      C1253   1.410       .  A
C1253      C1254   1.415       .  A
C1253     Br1261   1.928       .  S
C1254     Br1265   1.930       .  S
C1255      C1256   1.408       .  A
C1255      C1260   1.410       .  A
C1256      C1257   1.403       .  A
C1256     Br1267   1.932       .  S
C1257      C1258   1.413       .  A
C1257     Br1263   1.935       .  S
C1258      C1259   1.414       .  A
C1259      C1260   1.413       .  A
C1260     Br1264   1.928       .  S
C1269      C1270   1.410       .  A
C1269      C1274   1.415       .  A
C1270      C1271   1.404       .  A
C1270     Br1282   1.924       .  S
C1271      C1272   1.408       .  A
C1271     Br1286   1.932       .  S
C1272      C1275   1.484       .  S
C1272      C1273   1.408       .  A
C1273      C1274   1.411       .  A
C1273     Br1281   1.929       .  S
C1274     Br1285   1.931       .  S
C1275      C1276   1.405       .  A
C1275      C1280   1.409       .  A
C1276      C1277   1.404       .  A
C1276     Br1287   1.934       .  S
C1277      C1278   1.418       .  A
C1277     Br1283   1.936       .  S
C1278      C1279   1.415       .  A
C1279      C1280   1.412       .  A
C1279     Br1288   1.930       .  S
C1280     Br1284   1.930       .  S
C1289      C1290   1.419       .  A
C1289      C1294   1.419       .  A
C1290      C1291   1.407       .  A
C1290     Br1302   1.920       .  S
C1291      C1292   1.404       .  A
C1291     Br1306   1.933       .  S
C1292      C1295   1.483       .  S
C1292      C1293   1.405       .  A
C1293      C1294   1.408       .  A
C1293     Br1301   1.932       .  S
C1294     Br1305   1.930       .  S
C1295      C1296   1.408       .  A
C1295      C1300   1.401       .  A
C1296      C1297   1.411       .  A
C1296     Br1307   1.929       .  S
C1297      C1298   1.416       .  A
C1297     Br1303   1.927       .  S
C1298      C1299   1.426       .  A
C1299      C1300   1.404       .  A
C1299     Br1308   1.933       .  S
C1300     Br1304   1.937       .  S
O1309      C1317   1.263       .  A
O1309     Co1329   1.999   1_554  S
O1310      C1318   1.304       .  A
O1310     Co1548   2.094       .  S
O1311      C1319   1.277       .  A
O1312      C1320   1.262       .  A
O1312     Co1550   1.994   1_655  S
O1313      C1319   1.296       .  A
O1314      C1320   1.272       .  A
O1315      C1318   1.268       .  A
O1316      C1317   1.262       .  A
O1316     Co1331   1.986   1_655  S
C1317      C1516   1.493       .  S
C1318      C1376   1.484       .  S
C1319      C1407   1.494       .  S
C1320      C1427   1.519       .  S
O1321      C1334   1.258       .  A
O1322      C1335   1.257       .  A
O1323      C1336   1.274       .  A
O1323     Co1549   2.023   1_655  S
O1324      C1337   1.251       .  A
O1325      C1337   1.253       .  A
O1325     Co1330   1.990       .  S
O1326      C1336   1.264       .  A
O1326     Co1547   1.977       .  S
O1327      C1334   1.270       .  A
O1327     Co1332   2.024   1_655  S
O1328      C1335   1.235       .  A
Co1329     O1544   1.977       .  S
Co1329     O1333   2.064   1_565  S
Co1330     O1528   2.094       .  S
Co1331     O1541   2.023   1_454  S
Co1331     O1333   1.945   1_464  S
Co1332     O1530   1.994   1_455  S
C1334      C1476   1.481       .  S
C1335      C1487   1.479       .  S
C1336      C1447   1.491       .  S
C1337      C1396   1.494       .  S
O1338      C1346   1.270       .  A
O1338     Co1358   2.007       .  S
O1339      C1347   1.244       .  A
O1339     Co1359   1.969       .  S
O1340      C1348   1.263       .  A
O1340     Co1360   1.975       .  S
O1341      C1349   1.257       .  A
O1341     Co1361   2.027       .  S
O1342      C1348   1.273       .  A
O1342     Co1359   2.022       .  S
O1343      C1349   1.237       .  A
O1343     Co1358   1.953       .  S
O1344      C1347   1.254       .  A
O1344     Co1361   2.008       .  S
O1345      C1346   1.268       .  A
O1345     Co1360   1.988       .  S
C1346      C1456   1.482       .  S
C1347      C1387   1.480       .  S
C1348      C1496   1.485       .  S
C1349      C1467   1.497       .  S
O1350      C1363   1.271       .  A
O1350     Co1358   1.919       .  S
O1351      C1364   1.264       .  A
O1351     Co1359   1.987       .  S
O1352      C1365   1.267       .  A
O1352     Co1360   2.004       .  S
O1353      C1366   1.298       .  A
O1353     Co1361   2.078       .  S
O1354      C1366   1.274       .  A
O1354     Co1359   1.898       .  S
O1355      C1365   1.269       .  A
O1355     Co1358   1.996       .  S
O1356      C1363   1.296       .  A
O1356     Co1361   2.079       .  S
O1357      C1364   1.271       .  A
O1357     Co1360   2.030       .  S
Co1358     O1362   1.930       .  S
Co1359     O1362   1.940       .  S
Co1360     O1362   2.074       .  S
Co1361     O1362   2.258       .  S
C1363      C1436   1.493       .  S
C1364      C1416   1.509       .  S
C1365      C1507   1.492       .  S
C1366      C1367   1.484       .  S
C1367      C1368   1.414       .  A
C1367      C1372   1.409       .  A
C1368      C1369   1.409       .  A
C1368     Br1380   1.932       .  S
C1369      C1370   1.411       .  A
C1369     Br1384   1.932       .  S
C1370      C1373   1.490       .  S
C1370      C1371   1.409       .  A
C1371      C1372   1.406       .  A
C1371     Br1379   1.931       .  S
C1372     Br1383   1.916       .  S
C1373      C1374   1.409       .  A
C1373      C1378   1.411       .  A
C1374      C1375   1.409       .  A
C1374     Br1385   1.932       .  S
C1375      C1376   1.415       .  A
C1375     Br1381   1.929       .  S
C1376      C1377   1.413       .  A
C1377      C1378   1.407       .  A
C1377     Br1386   1.928       .  S
C1378     Br1382   1.932       .  S
C1387      C1388   1.411       .  A
C1387      C1392   1.408       .  A
C1388      C1389   1.407       .  A
C1388     Br1400   1.925       .  S
C1389      C1390   1.408       .  A
C1389     Br1404   1.932       .  S
C1390      C1393   1.491       .  S
C1390      C1391   1.413       .  A
C1391      C1392   1.412       .  A
C1391     Br1399   1.927       .  S
C1392     Br1403   1.929       .  S
C1393      C1394   1.408       .  A
C1393      C1398   1.408       .  A
C1394      C1395   1.413       .  A
C1394     Br1405   1.932       .  S
C1395      C1396   1.420       .  A
C1395     Br1401   1.932       .  S
C1396      C1397   1.417       .  A
C1397      C1398   1.409       .  A
C1397     Br1406   1.930       .  S
C1398     Br1402   1.932       .  S
C1407      C1408   1.419       .  A
C1407      C1412   1.413       .  A
C1408      C1409   1.411       .  A
C1408     Br1420   1.933       .  S
C1409      C1410   1.408       .  A
C1409     Br1424   1.931       .  S
C1410      C1413   1.500       .  S
C1410      C1411   1.414       .  A
C1411      C1412   1.415       .  A
C1411     Br1419   1.925       .  S
C1412     Br1423   1.932       .  S
C1413      C1414   1.411       .  A
C1413      C1418   1.406       .  A
C1414      C1415   1.418       .  A
C1414     Br1425   1.927       .  S
C1415      C1416   1.418       .  A
C1415     Br1421   1.930       .  S
C1416      C1417   1.425       .  A
C1417      C1418   1.412       .  A
C1417     Br1426   1.927       .  S
C1418     Br1422   1.936       .  S
C1427      C1428   1.425       .  A
C1427      C1432   1.427       .  A
C1428      C1429   1.416       .  A
C1428     Br1440   1.933       .  S
C1429      C1430   1.409       .  A
C1429     Br1444   1.932       .  S
C1430      C1433   1.504       .  S
C1430      C1431   1.408       .  A
C1431      C1432   1.416       .  A
C1431     Br1439   1.933       .  S
C1432     Br1443   1.935       .  S
C1433      C1434   1.411       .  A
C1433      C1438   1.414       .  A
C1434      C1435   1.413       .  A
C1434     Br1445   1.930       .  S
C1435      C1436   1.413       .  A
C1435     Br1441   1.927       .  S
C1436      C1437   1.412       .  A
C1437      C1438   1.415       .  A
C1437     Br1446   1.928       .  S
C1438     Br1442   1.930       .  S
C1447      C1448   1.419       .  A
C1447      C1452   1.419       .  A
C1448      C1449   1.403       .  A
C1448     Br1460   1.936       .  S
C1449      C1450   1.405       .  A
C1449     Br1464   1.936       .  S
C1450      C1453   1.485       .  S
C1450      C1451   1.409       .  A
C1451      C1452   1.414       .  A
C1451     Br1459   1.930       .  S
C1452     Br1463   1.931       .  S
C1453      C1454   1.408       .  A
C1453      C1458   1.408       .  A
C1454      C1455   1.408       .  A
C1454     Br1465   1.929       .  S
C1455      C1456   1.413       .  A
C1455     Br1461   1.931       .  S
C1456      C1457   1.414       .  A
C1457      C1458   1.408       .  A
C1457     Br1466   1.930       .  S
C1458     Br1462   1.931       .  S
C1467      C1468   1.424       .  A
C1467      C1472   1.418       .  A
C1468      C1469   1.402       .  A
C1468     Br1480   1.931       .  S
C1469      C1470   1.401       .  A
C1469     Br1484   1.936       .  S
C1470      C1473   1.485       .  S
C1470      C1471   1.410       .  A
C1471      C1472   1.415       .  A
C1471     Br1479   1.928       .  S
C1472     Br1483   1.930       .  S
C1473      C1474   1.408       .  A
C1473      C1478   1.410       .  A
C1474      C1475   1.403       .  A
C1474     Br1485   1.932       .  S
C1475      C1476   1.413       .  A
C1475     Br1481   1.935       .  S
C1476      C1477   1.414       .  A
C1477      C1478   1.413       .  A
C1477     Br1704   1.930       .  S
C1478     Br1482   1.928       .  S
Br1486     C1695   1.930   1_554  S
C1487      C1488   1.410       .  A
C1487      C1492   1.415       .  A
C1488      C1489   1.404       .  A
C1488     Br1500   1.924       .  S
C1489      C1490   1.408       .  A
C1489     Br1504   1.932       .  S
C1490      C1493   1.484       .  S
C1490      C1491   1.408       .  A
C1491      C1492   1.411       .  A
C1491     Br1499   1.929       .  S
C1492     Br1503   1.931       .  S
C1493      C1494   1.405       .  A
C1493      C1498   1.409       .  A
C1494      C1495   1.404       .  A
C1494     Br1505   1.934       .  S
C1495      C1496   1.418       .  A
C1495     Br1501   1.936       .  S
C1496      C1497   1.415       .  A
C1497      C1498   1.412       .  A
C1497     Br1506   1.930       .  S
C1498     Br1502   1.930       .  S
C1507      C1508   1.419       .  A
C1507      C1512   1.419       .  A
C1508      C1509   1.407       .  A
C1508     Br1520   1.920       .  S
C1509      C1510   1.404       .  A
C1509     Br1524   1.933       .  S
C1510      C1513   1.483       .  S
C1510      C1511   1.405       .  A
C1511      C1512   1.408       .  A
C1511     Br1519   1.932       .  S
C1512     Br1523   1.930       .  S
C1513      C1514   1.408       .  A
C1513      C1518   1.401       .  A
C1514      C1515   1.411       .  A
C1514     Br1525   1.929       .  S
C1515      C1516   1.416       .  A
C1515     Br1521   1.927       .  S
C1516      C1517   1.426       .  A
C1517      C1518   1.404       .  A
C1517     Br1526   1.933       .  S
C1518     Br1522   1.937       .  S
O1527      C1535   1.263       .  A
O1527     Co1547   1.999       .  S
O1528      C1536   1.304       .  A
O1529      C1537   1.277       .  A
O1530      C1538   1.262       .  A
O1531      C1537   1.296       .  A
O1532      C1538   1.272       .  A
O1533      C1536   1.268       .  A
O1534      C1535   1.262       .  A
O1534     Co1549   1.986   1_655  S
C1535      C1734   1.493       .  S
C1536      C1594   1.484       .  S
C1537      C1625   1.494       .  S
C1538      C1645   1.519       .  S
O1539      C1552   1.258       .  A
O1540      C1553   1.257       .  A
O1541      C1554   1.274       .  A
O1542      C1555   1.251       .  A
O1543      C1555   1.253       .  A
O1543     Co1548   1.990   1_556  S
O1544      C1554   1.264       .  A
O1545      C1552   1.270       .  A
O1545     Co1550   2.024   1_656  S
O1546      C1553   1.235       .  A
Co1547     O1551   2.064   1_565  S
Co1549     O1551   1.945   1_465  S
C1552      C1694   1.481       .  S
C1553      C1705   1.479       .  S
C1554      C1665   1.491       .  S
C1555      C1614   1.494       .  S
O1556      C1564   1.270       .  A
O1556     Co1576   2.007       .  S
O1557      C1565   1.244       .  A
O1557     Co1577   1.969       .  S
O1558      C1566   1.263       .  A
O1558     Co1578   1.975       .  S
O1559      C1567   1.257       .  A
O1559     Co1579   2.027       .  S
O1560      C1566   1.273       .  A
O1560     Co1577   2.022       .  S
O1561      C1567   1.237       .  A
O1561     Co1576   1.953       .  S
O1562      C1565   1.254       .  A
O1562     Co1579   2.008       .  S
O1563      C1564   1.268       .  A
O1563     Co1578   1.988       .  S
C1564      C1674   1.482       .  S
C1565      C1605   1.480       .  S
C1566      C1714   1.485       .  S
C1567      C1685   1.497       .  S
O1568      C1581   1.271       .  A
O1568     Co1576   1.919       .  S
O1569      C1582   1.264       .  A
O1569     Co1577   1.987       .  S
O1570      C1583   1.267       .  A
O1570     Co1578   2.004       .  S
O1571      C1584   1.298       .  A
O1571     Co1579   2.078       .  S
O1572      C1584   1.274       .  A
O1572     Co1577   1.898       .  S
O1573      C1583   1.269       .  A
O1573     Co1576   1.996       .  S
O1574      C1581   1.296       .  A
O1574     Co1579   2.079       .  S
O1575      C1582   1.271       .  A
O1575     Co1578   2.030       .  S
Co1576     O1580   1.930       .  S
Co1577     O1580   1.940       .  S
Co1578     O1580   2.074       .  S
Co1579     O1580   2.258       .  S
C1581      C1654   1.493       .  S
C1582      C1634   1.509       .  S
C1583      C1725   1.492       .  S
C1584      C1585   1.484       .  S
C1585      C1586   1.414       .  A
C1585      C1590   1.409       .  A
C1586      C1587   1.409       .  A
C1586     Br1598   1.932       .  S
C1587      C1588   1.411       .  A
C1587     Br1602   1.932       .  S
C1588      C1591   1.490       .  S
C1588      C1589   1.409       .  A
C1589      C1590   1.406       .  A
C1589     Br1597   1.931       .  S
C1590     Br1601   1.916       .  S
C1591      C1592   1.409       .  A
C1591      C1596   1.411       .  A
C1592      C1593   1.409       .  A
C1592     Br1603   1.932       .  S
C1593      C1594   1.415       .  A
C1593     Br1599   1.929       .  S
C1594      C1595   1.413       .  A
C1595      C1596   1.407       .  A
C1595     Br1604   1.928       .  S
C1596     Br1600   1.932       .  S
C1605      C1606   1.411       .  A
C1605      C1610   1.408       .  A
C1606      C1607   1.407       .  A
C1606     Br1618   1.925       .  S
C1607      C1608   1.408       .  A
C1607     Br1622   1.932       .  S
C1608      C1611   1.491       .  S
C1608      C1609   1.413       .  A
C1609      C1610   1.412       .  A
C1609     Br1617   1.927       .  S
C1610     Br1621   1.929       .  S
C1611      C1612   1.408       .  A
C1611      C1616   1.408       .  A
C1612      C1613   1.413       .  A
C1612     Br1623   1.932       .  S
C1613      C1614   1.420       .  A
C1613     Br1619   1.932       .  S
C1614      C1615   1.417       .  A
C1615      C1616   1.409       .  A
C1615     Br1624   1.930       .  S
C1616     Br1620   1.932       .  S
C1625      C1626   1.419       .  A
C1625      C1630   1.413       .  A
C1626      C1627   1.411       .  A
C1626     Br1638   1.933       .  S
C1627      C1628   1.408       .  A
C1627     Br1642   1.931       .  S
C1628      C1631   1.500       .  S
C1628      C1629   1.414       .  A
C1629      C1630   1.415       .  A
C1629     Br1637   1.925       .  S
C1630     Br1641   1.932       .  S
C1631      C1632   1.411       .  A
C1631      C1636   1.406       .  A
C1632      C1633   1.418       .  A
C1632     Br1643   1.927       .  S
C1633      C1634   1.418       .  A
C1633     Br1639   1.930       .  S
C1634      C1635   1.425       .  A
C1635      C1636   1.412       .  A
C1635     Br1644   1.927       .  S
C1636     Br1640   1.936       .  S
C1645      C1646   1.425       .  A
C1645      C1650   1.427       .  A
C1646      C1647   1.416       .  A
C1646     Br1658   1.933       .  S
C1647      C1648   1.409       .  A
C1647     Br1662   1.932       .  S
C1648      C1651   1.504       .  S
C1648      C1649   1.408       .  A
C1649      C1650   1.416       .  A
C1649     Br1657   1.933       .  S
C1650     Br1661   1.935       .  S
C1651      C1652   1.411       .  A
C1651      C1656   1.414       .  A
C1652      C1653   1.413       .  A
C1652     Br1663   1.930       .  S
C1653      C1654   1.413       .  A
C1653     Br1659   1.927       .  S
C1654      C1655   1.412       .  A
C1655      C1656   1.415       .  A
C1655     Br1664   1.928       .  S
C1656     Br1660   1.930       .  S
C1665      C1666   1.419       .  A
C1665      C1670   1.419       .  A
C1666      C1667   1.403       .  A
C1666     Br1678   1.936       .  S
C1667      C1668   1.405       .  A
C1667     Br1682   1.936       .  S
C1668      C1671   1.485       .  S
C1668      C1669   1.409       .  A
C1669      C1670   1.414       .  A
C1669     Br1677   1.930       .  S
C1670     Br1681   1.931       .  S
C1671      C1672   1.408       .  A
C1671      C1676   1.408       .  A
C1672      C1673   1.408       .  A
C1672     Br1683   1.929       .  S
C1673      C1674   1.413       .  A
C1673     Br1679   1.931       .  S
C1674      C1675   1.414       .  A
C1675      C1676   1.408       .  A
C1675     Br1684   1.930       .  S
C1676     Br1680   1.931       .  S
C1685      C1686   1.424       .  A
C1685      C1690   1.418       .  A
C1686      C1687   1.402       .  A
C1686     Br1698   1.931       .  S
C1687      C1688   1.401       .  A
C1687     Br1702   1.936       .  S
C1688      C1691   1.485       .  S
C1688      C1689   1.410       .  A
C1689      C1690   1.415       .  A
C1689     Br1697   1.928       .  S
C1690     Br1701   1.930       .  S
C1691      C1692   1.408       .  A
C1691      C1696   1.410       .  A
C1692      C1693   1.403       .  A
C1692     Br1703   1.932       .  S
C1693      C1694   1.413       .  A
C1693     Br1699   1.935       .  S
C1694      C1695   1.414       .  A
C1695      C1696   1.413       .  A
C1696     Br1700   1.928       .  S
C1705      C1706   1.410       .  A
C1705      C1710   1.415       .  A
C1706      C1707   1.404       .  A
C1706     Br1718   1.924       .  S
C1707      C1708   1.408       .  A
C1707     Br1722   1.932       .  S
C1708      C1711   1.484       .  S
C1708      C1709   1.408       .  A
C1709      C1710   1.411       .  A
C1709     Br1717   1.929       .  S
C1710     Br1721   1.931       .  S
C1711      C1712   1.405       .  A
C1711      C1716   1.409       .  A
C1712      C1713   1.404       .  A
C1712     Br1723   1.934       .  S
C1713      C1714   1.418       .  A
C1713     Br1719   1.936       .  S
C1714      C1715   1.415       .  A
C1715      C1716   1.412       .  A
C1715     Br1724   1.930       .  S
C1716     Br1720   1.930       .  S
C1725      C1726   1.419       .  A
C1725      C1730   1.419       .  A
C1726      C1727   1.407       .  A
C1726     Br1738   1.920       .  S
C1727      C1728   1.404       .  A
C1727     Br1742   1.933       .  S
C1728      C1731   1.483       .  S
C1728      C1729   1.405       .  A
C1729      C1730   1.408       .  A
C1729     Br1737   1.932       .  S
C1730     Br1741   1.930       .  S
C1731      C1732   1.408       .  A
C1731      C1736   1.401       .  A
C1732      C1733   1.411       .  A
C1732     Br1743   1.929       .  S
C1733      C1734   1.416       .  A
C1733     Br1739   1.927       .  S
C1734      C1735   1.426       .  A
C1735      C1736   1.404       .  A
C1735     Br1744   1.933       .  S
C1736     Br1740   1.937       .  S
