geometry optimzed in LAMMPS
_audit_creation_date              2020-11-30 
_audit_creation_method            'lammps2cif' 
_symmetry_space_group_name_H-M    'P1' 
_symmetry_Int_Tables_number       1 
_symmetry_cell_setting            triclinic 
loop_ 
_symmetry_equiv_pos_as_xyz 
  x,y,z 
_cell_length_a                    28.6788562 
_cell_length_b                    29.129066407135877 
_cell_length_c                    28.71375527371714 
_cell_angle_alpha                 89.19570641572156 
_cell_angle_beta                  90.31086478692154 
_cell_angle_gamma                 89.00726207315351 
loop_ 
_atom_site_label 
_atom_site_type_symbol 
_atom_site_fract_x 
_atom_site_fract_y 
_atom_site_fract_z 
_atom_site_charge 
C1          C  0.30615354  0.94921795  0.62723541     0.00000
C2          C  0.35010855  0.83323915  0.58198762     0.00000
C3          C  0.42211160  0.89090436  0.66327600     0.00000
C4          C  0.89384214  0.67381422  0.31736051     0.00000
C5          C  0.79439585  0.61261870  0.37927887     0.00000
C6          C  0.86109708  0.71453453  0.43048522     0.00000
C7          C  0.55473089  0.38801774  0.81321237     0.00000
C8          C  0.65329130  0.45018889  0.87656708     0.00000
C9          C  0.59274623  0.35522467  0.93695532     0.00000
C10         C  0.13547155  0.08919955  0.11787602     0.00000
C11         C  0.10596535  0.21180089  0.07817004     0.00000
C12         C  0.04153553  0.15953954  0.17897843     0.00000
In13       In  0.60447909  0.01644353  0.68993210     1.36900
C14         C  0.63635977  0.02747665  0.77627891     0.80100
O15         O  0.56901521  0.06044959  0.63514343    -0.58400
O16         O  0.61795595  0.09165457  0.67969202    -0.49300
C17         C  0.66403398  0.97144869  0.63704870     0.72800
O18         O  0.64163873  0.95160872  0.66907896    -0.44100
C19         C  0.52336127  0.97345726  0.69008327     0.77500
O20         O  0.66163585  0.01180690  0.74436316    -0.56000
O21         O  0.55869360  0.95813631  0.66916100    -0.46100
O22         O  0.59438207  0.03405164  0.76492023    -0.52400
C23         C  0.58900358  0.09662853  0.64679482     0.87600
O24         O  0.65817406  0.01446716  0.63448816    -0.54300
O25         O  0.52996673  0.00976686  0.71220694    -0.57600
In26       In  0.54188475  0.30662819  0.60472223     1.36900
C27         C  0.45781472  0.28555802  0.57250472     0.80100
O28         O  0.54359960  0.23027205  0.59893591    -0.58400
O29         O  0.59864859  0.26184071  0.63591522    -0.49300
C30         C  0.59782966  0.34859591  0.54501050     0.72800
O31         O  0.56306466  0.36865861  0.56259004    -0.44100
C32         C  0.54265660  0.35462066  0.68327607     0.77500
O33         O  0.48989550  0.29962508  0.54650635    -0.56000
O34         O  0.55071343  0.31210563  0.68213280    -0.46100
O35         O  0.46708774  0.28666369  0.61544624    -0.52400
C36         C  0.58026014  0.22507623  0.62301065     0.87600
O37         O  0.60254719  0.30687930  0.55637827    -0.54300
O38         O  0.53181880  0.37256984  0.64445667    -0.57600
In39       In  0.34158914  0.08936396  0.21808142     1.36900
C40         C  0.37994584  0.00662519  0.23496871     0.80100
O41         O  0.30270845  0.13370288  0.26901094    -0.58400
O42         O  0.34830851  0.08134562  0.29566250    -0.49300
C43         C  0.39953456  0.15256640  0.18350977     0.72800
O44         O  0.38046896  0.12292176  0.15874007    -0.44100
C45         C  0.26519119  0.08797834  0.16291398     0.77500
O46         O  0.40363477  0.04116262  0.22431270    -0.56000
O47         O  0.26415071  0.10067452  0.20468709    -0.46100
O48         O  0.33640948  0.01311752  0.23201972    -0.52400
C49         C  0.32005945  0.11356766  0.30444645     0.87600
O50         O  0.38935781  0.14983631  0.22597663    -0.54300
O51         O  0.30498996  0.07476091  0.14963322    -0.57600
In52       In  0.29316351  0.14929150  0.52231152     1.36900
C53         C  0.21358845  0.19443384  0.50444112     0.80100
O54         O  0.27967197  0.14294524  0.44576737    -0.58400
O55         O  0.34341926  0.11543066  0.47223335    -0.49300
C56         C  0.35299954  0.20817107  0.55928633     0.72800
O57         O  0.32524796  0.18509691  0.58363684    -0.44100
C58         C  0.28662048  0.07426940  0.57694899     0.77500
O59         O  0.25081671  0.21440026  0.51467488    -0.56000
O60         O  0.31658677  0.07821567  0.54535907    -0.46100
O61         O  0.21606609  0.15110538  0.50678013    -0.52400
C62         C  0.31774626  0.12294356  0.43709494     0.87600
O63         O  0.35007728  0.20120511  0.51621569    -0.54300
O64         O  0.25982890  0.10877231  0.58085349    -0.57600
In65       In  0.73883375  0.90438516  0.44227021     1.36900
C66         C  0.72352875  0.94389913  0.52344292     0.80100
O67         O  0.69193718  0.87393906  0.38800520    -0.58400
O68         O  0.66121247  0.90236706  0.44846281    -0.49300
C69         C  0.77718835  0.96593462  0.38485978     0.72800
O70         O  0.73379800  0.96209653  0.38911955    -0.44100
C71         C  0.79290330  0.82905028  0.45359409     0.77500
O72         O  0.73891856  0.96536489  0.48858881    -0.56000
O73         O  0.75967282  0.83117570  0.42472835    -0.46100
O74         O  0.71745684  0.90156561  0.51740395    -0.52400
C75         C  0.65504995  0.88305845  0.40999664     0.87600
O76         O  0.80094226  0.93792211  0.40934235    -0.54300
O77         O  0.79806481  0.86501044  0.47670098    -0.57600
In78       In  0.43845301  0.84388764  0.37630528     1.36900
C79         C  0.45759107  0.75825054  0.35003408     0.80100
O80         O  0.48624580  0.88903891  0.41690544    -0.58400
O81         O  0.51619976  0.84323490  0.36809514    -0.49300
C82         C  0.39936203  0.90041949  0.31185465     0.72800
O83         O  0.37611019  0.87413538  0.33744500    -0.44100
C84         C  0.38350323  0.84045518  0.45103054     0.77500
O85         O  0.43922904  0.78814012  0.32323159    -0.56000
O86         O  0.41620239  0.86863461  0.44734368    -0.46100
O87         O  0.46375522  0.77124314  0.39128596    -0.52400
C88         C  0.52286393  0.87312143  0.39858759     0.87600
O89         O  0.44269006  0.89719041  0.31834889    -0.54300
O90         O  0.37855262  0.81489867  0.41638070    -0.57600
In91       In  0.95958885  0.69475343  0.63445649     1.36900
C92         C  0.97684522  0.77734036  0.66960189     0.80100
O93         O  0.00405775  0.64660268  0.59233798    -0.58400
O94         O  0.03692879  0.68951488  0.64150805    -0.49300
C95         C  0.92488669  0.63392637  0.69473778     0.72800
O96         O  0.96528672  0.63003120  0.67803709    -0.44100
C97         C  0.90429854  0.70108451  0.55908431     0.77500
O98         O  0.96697241  0.74315731  0.69461421    -0.56000
O99         O  0.94769154  0.70659027  0.55766277    -0.46100
O100        O  0.97439738  0.77034606  0.62655540    -0.52400
C101        C  0.04167823  0.65998711  0.61012626     0.87600
O102        O  0.90233940  0.66915049  0.68097146    -0.54300
O103        O  0.88873181  0.69340830  0.59933289    -0.57600
In104      In  0.25649318  0.63296125  0.55720845     1.36900
C105        C  0.23385062  0.60343343  0.47311578     0.80100
O106        O  0.20979186  0.66620717  0.60961768    -0.58400
O107        O  0.17893752  0.62432800  0.55822714    -0.49300
C108        C  0.29855189  0.57253742  0.61522498     0.72800
O109        O  0.31963016  0.59122164  0.58186203    -0.44100
C110        C  0.30728300  0.70919472  0.55548966     0.77500
O111        O  0.24932336  0.57721334  0.50504213    -0.56000
O112        O  0.26733256  0.70734108  0.57324378    -0.46100
O113        O  0.23354213  0.64555698  0.48278067    -0.52400
C114        C  0.17301127  0.64971161  0.59296473     0.87600
O115        O  0.25615045  0.58365127  0.61784566    -0.54300
O116        O  0.32086897  0.67240409  0.53690780    -0.57600
In117      In  0.04162438  0.26056637  0.37837002     1.36900
C118        C  0.95598276  0.28159529  0.40552070     0.80100
O119        O  0.08778431  0.30779014  0.33712971    -0.58400
O120        O  0.04148105  0.33668117  0.38667813    -0.49300
C121        C  0.09984047  0.22220761  0.44095764     0.72800
O122        O  0.06058871  0.20574992  0.43186006    -0.44100
C123        C  0.04130231  0.20581387  0.30499184     0.77500
O124        O  0.99064103  0.28132942  0.43260875    -0.56000
O125        O  0.04146301  0.24895229  0.30128963    -0.46100
O126        O  0.96404807  0.26620254  0.36558673    -0.52400
C127        C  0.07155399  0.34365345  0.35569753     0.87600
O128        O  0.10880114  0.25860257  0.41882341    -0.54300
O129        O  0.04022030  0.19059198  0.34625211    -0.57600
In130      In  0.09024106  0.55870282  0.31243642     1.36900
C131        C  0.10647800  0.53982987  0.22369750     0.80100
O132        O  0.05929498  0.50948806  0.36401588    -0.58400
O133        O  0.10218110  0.48255603  0.31023843    -0.49300
C134        C  0.15797667  0.59236722  0.36563182     0.72800
O135        O  0.14158490  0.61408878  0.33091307    -0.44100
C136        C  0.01770184  0.61716987  0.31785054     0.77500
O137        O  0.13828714  0.55117520  0.25156876    -0.56000
O138        O  0.01445992  0.57527486  0.32870857    -0.46100
O139        O  0.06592065  0.54216463  0.24010127    -0.52400
C140        C  0.07701761  0.47437456  0.34515815     0.87600
O141        O  0.14074946  0.55342878  0.37208832    -0.54300
O142        O  0.05767715  0.62883973  0.30497332    -0.57600
In143      In  0.85936193  0.44547015  0.78260948     1.36900
C144        C  0.90529752  0.52168700  0.76114189     0.80100
O145        O  0.83661612  0.39390685  0.73015499    -0.58400
O146        O  0.83622078  0.46471180  0.71089897    -0.49300
C147        C  0.91772513  0.38360393  0.82150590     0.72800
O148        O  0.89793831  0.41476943  0.84461722    -0.44100
C149        C  0.78255511  0.44956805  0.83451307     0.77500
O150        O  0.92487590  0.48270157  0.76343764    -0.56000
O151        O  0.78441026  0.42829438  0.79677151    -0.46100
O152        O  0.86326060  0.52232988  0.77379826    -0.52400
C153        C  0.82922551  0.42398828  0.69883970     0.87600
O154        O  0.90857058  0.38489093  0.77854678    -0.54300
O155        O  0.82004365  0.46845580  0.84605398    -0.57600
In156      In  0.79433007  0.41419069  0.48028816     1.36900
C157        C  0.71255369  0.37409861  0.48784174     0.80100
O158        O  0.80067580  0.46430062  0.53802557    -0.58400
O159        O  0.80139880  0.39300651  0.55509816    -0.49300
C160        C  0.86892054  0.36386734  0.45976144     0.72800
O161        O  0.83168818  0.36210334  0.43644001    -0.44100
C162        C  0.79497285  0.48557244  0.42144399     0.77500
O163        O  0.74978888  0.35219894  0.48034651    -0.56000
O164        O  0.80891424  0.48717568  0.46294161    -0.46100
O165        O  0.71633937  0.41714266  0.48790568    -0.52400
C166        C  0.80376388  0.43366071  0.56929570     0.87600
O167        O  0.86871037  0.39302523  0.49157481    -0.54300
O168        O  0.78125844  0.44665407  0.40903696    -0.57600
In169      In  0.15540609  0.88980960  0.01838069     1.36900
C170        C  0.23953793  0.85599958  0.99590042     0.80100
O171        O  0.14986300  0.87392719  0.94298602    -0.58400
O172        O  0.12032498  0.93691521  0.96684307    -0.49300
C173        C  0.09112588  0.83575481  0.05721929     0.72800
O174        O  0.12588212  0.84998771  0.07930812    -0.44100
C175        C  0.15878893  0.96449154  0.07141980     0.77500
O176        O  0.20927060  0.83253419  0.01669425    -0.56000
O177        O  0.13070380  0.96074413  0.03787972    -0.46100
O178        O  0.22857197  0.89786755  0.99062360    -0.52400
C179        C  0.12926190  0.91132229  0.93291551     0.87600
O180        O  0.09028065  0.84737172  0.01489879    -0.54300
O181        O  0.18551202  0.93005500  0.07782258    -0.57600
In182      In  0.10041025  0.94971791  0.71787478     1.36900
C183        C  0.07179375  0.03421828  0.74072962     0.80100
O184        O  0.09415485  0.95104117  0.79421705    -0.58400
O185        O  0.14038208  0.90109514  0.76546398    -0.49300
C186        C  0.04029089  0.89004211  0.68285580     0.72800
O187        O  0.05455229  0.92395430  0.65962411    -0.44100
C188        C  0.17626145  0.94969436  0.66505215     0.77500
O189        O  0.04428222  0.00124261  0.73643292    -0.56000
O190        O  0.17705804  0.93951697  0.70782886    -0.46100
O191        O  0.11285302  0.02550118  0.72782320    -0.52400
C192        C  0.12287874  0.91856911  0.80149254     0.87600
O193        O  0.05542747  0.88779060  0.72395234    -0.54300
O194        O  0.13643287  0.96050927  0.64900368    -0.57600
In195      In  0.99336617  0.18713449  0.88249651     1.36900
C196        C  0.98085313  0.26910593  0.84125784     0.80100
O197        O  0.94196793  0.14953391  0.92765427    -0.58400
O198        O  0.91556942  0.19724797  0.87722485    -0.49300
C199        C  0.01394931  0.11775928  0.82551058     0.72800
O200        O  0.98368614  0.11538040  0.85698661    -0.44100
C201        C  0.05598346  0.19283893  0.95262101     0.77500
O202        O  0.98482817  0.23247663  0.81880185    -0.56000
O203        O  0.01283576  0.19957670  0.95725784    -0.46100
O204        O  0.98725164  0.26442017  0.88451809    -0.52400
C205        C  0.90657987  0.16895997  0.90937040     0.87600
O206        O  0.03518080  0.15534347  0.82380615    -0.54300
O207        O  0.06776349  0.18288519  0.91169935    -0.57600
In208      In  0.68701315  0.15192679  0.94774493     1.36900
C209        C  0.70437315  0.12127064  0.03362285     0.80100
O210        O  0.73837334  0.19428029  0.90719681    -0.58400
O211        O  0.76423732  0.13816658  0.94815688    -0.49300
C212        C  0.64993329  0.09360909  0.88756922     0.72800
O213        O  0.69301175  0.10013618  0.89066379    -0.44100
C214        C  0.63166646  0.22643830  0.94820048     0.77500
O215        O  0.68703149  0.09628911  0.00276478    -0.56000
O216        O  0.66679965  0.22287978  0.92223186    -0.46100
O217        O  0.70883201  0.16280447  0.02173472    -0.52400
C218        C  0.77347713  0.17116756  0.92114633     0.87600
O219        O  0.62574596  0.11595348  0.91599697    -0.54300
O220        O  0.62480607  0.19188761  0.97406649    -0.57600
In221      In  0.83745664  0.07076561  0.20481528     1.36900
C222        C  0.79587968  0.05078629  0.28510843     0.80100
O223        O  0.86944968  0.00303699  0.22391588    -0.58400
O224        O  0.84666411  0.01397132  0.15383344    -0.49300
C225        C  0.77721400  0.10702888  0.14389831     0.72800
O226        O  0.80000033  0.13114511  0.17189043    -0.44100
C227        C  0.91317542  0.12212938  0.19593027     0.77500
O228        O  0.77319724  0.06188307  0.24896094    -0.56000
O229        O  0.87765646  0.13556180  0.21799553    -0.46100
O230        O  0.83922768  0.05607142  0.28190572    -0.52400
C231        C  0.86471043  0.98685071  0.18382738     0.87600
O232        O  0.78401356  0.06424644  0.14828115    -0.54300
O233        O  0.91010271  0.08259546  0.17934920    -0.57600
In234      In  0.88800976  0.78153374  0.11772446     1.36900
C235        C  0.97206684  0.78413659  0.07885927     0.80100
O236        O  0.86920479  0.85144842  0.08895746    -0.58400
O237        O  0.89445602  0.84528239  0.15852795    -0.49300
C238        C  0.81840536  0.74904535  0.06800964     0.72800
O239        O  0.85581481  0.72618397  0.07453812    -0.44100
C240        C  0.87491770  0.74006972  0.19984241     0.77500
O241        O  0.93569256  0.77590128  0.05595861    -0.56000
O242        O  0.85211765  0.77494632  0.18615146    -0.46100
O243        O  0.96611377  0.78654842  0.12218657    -0.52400
C244        C  0.87893300  0.87125006  0.12636096     0.87600
O245        O  0.81692592  0.78760872  0.08709650    -0.54300
O246        O  0.90374452  0.72453209  0.17058780    -0.57600
In247      In  0.64997906  0.63770525  0.98990994     1.36900
C248        C  0.73318397  0.67319478  0.00460577     0.80100
O249        O  0.62199009  0.65272085  0.06074361    -0.58400
O250        O  0.65480690  0.58786051  0.04967666    -0.49300
C251        C  0.59576167  0.69584807  0.94233067     0.72800
O252        O  0.63034692  0.67582047  0.92416550    -0.44100
C253        C  0.63166333  0.56230465  0.94411171     0.77500
O254        O  0.69593794  0.69659900  0.00434413    -0.56000
O255        O  0.60407888  0.57874110  0.97386375    -0.46100
O256        O  0.72861554  0.63201065  0.99298346    -0.52400
C257        C  0.63529931  0.61458198  0.07784896     0.87600
O258        O  0.58940999  0.68646525  0.98481895    -0.54300
O259        O  0.66772121  0.58561636  0.93643960    -0.57600
In260      In  0.58700097  0.59122441  0.29235252     1.36900
C261        C  0.54683341  0.51269924  0.26969615     0.80100
O262        O  0.61526784  0.57818060  0.22164287    -0.58400
O263        O  0.59297005  0.64615855  0.23714656    -0.49300
C264        C  0.52819784  0.64769949  0.33548455     0.72800
O265        O  0.52959123  0.64380147  0.29185812    -0.44100
C266        C  0.66493495  0.59421033  0.34292971     0.77500
O267        O  0.52370491  0.54864864  0.27839139    -0.56000
O268        O  0.65793429  0.61909923  0.30724193    -0.46100
O269        O  0.58991142  0.51541750  0.27770998    -0.52400
C270        C  0.60844254  0.61873939  0.20716697     0.87600
O271        O  0.55496692  0.62029517  0.35770633    -0.54300
O272        O  0.63208752  0.56752832  0.35277458    -0.57600
In273      In  0.49479243  0.34330079  0.14028825     1.36900
C274        C  0.47382980  0.25957810  0.17157290     0.80100
O275        O  0.41730793  0.34558111  0.14976229    -0.58400
O276        O  0.44723476  0.38939626  0.09845171    -0.49300
C277        C  0.53077789  0.40349972  0.19961995     0.72800
O278        O  0.48890515  0.40490923  0.18651847    -0.44100
C279        C  0.54907577  0.34124284  0.06501384     0.77500
O280        O  0.49112861  0.28955610  0.19738147    -0.56000
O281        O  0.50889518  0.35916075  0.06506140    -0.46100
O282        O  0.47123644  0.27097209  0.12911547    -0.52400
C283        C  0.41074669  0.37526865  0.11787715     0.87600
O284        O  0.55427409  0.37071585  0.18320965    -0.54300
O285        O  0.56146360  0.32313824  0.10335206    -0.57600
In286      In  0.19735698  0.41408923  0.06722977     1.36900
C287        C  0.21358364  0.44487727  0.98100327     0.80100
O288        O  0.27480040  0.41499995  0.06749771    -0.58400
O289        O  0.24146020  0.37740682  0.12161138    -0.49300
C290        C  0.17158739  0.47857600  0.12764263     0.72800
O291        O  0.14228152  0.45385653  0.10732616    -0.44100
C292        C  0.14411847  0.33926880  0.06552936     0.77500
O293        O  0.19243381  0.46889014  0.01052241    -0.56000
O294        O  0.18724885  0.33797718  0.07371380    -0.46100
O295        O  0.22166073  0.40409220  0.99399863    -0.52400
C296        C  0.27927004  0.38991457  0.10345406     0.87600
O297        O  0.21312569  0.47094109  0.11629139    -0.54300
O298        O  0.12771112  0.37912302  0.05756842    -0.57600
In299      In  0.41133980  0.79181312  0.86733357     1.36900
C300        C  0.49115919  0.77108113  0.91034237     0.80100
O301        O  0.40319856  0.71653799  0.88264042    -0.58400
O302        O  0.37846562  0.74242337  0.81762826    -0.49300
C303        C  0.34804915  0.83456706  0.92092147     0.72800
O304        O  0.38061305  0.85549898  0.90099346    -0.44100
C305        C  0.42772337  0.84149783  0.79066040     0.77500
O306        O  0.45906380  0.79377644  0.92979120    -0.56000
O307        O  0.38892216  0.82321116  0.79822650    -0.46100
O308        O  0.48373018  0.76225125  0.86815192    -0.52400
C309        C  0.38480663  0.70788855  0.84394383     0.87600
O310        O  0.34806829  0.79206865  0.91364610    -0.54300
O311        O  0.45733363  0.83577909  0.82293557    -0.57600
In312      In  0.35232596  0.49306586  0.81370350     1.36900
C313        C  0.31849068  0.50616534  0.72800068     0.80100
O314        O  0.38545057  0.54171749  0.86397686    -0.58400
O315        O  0.34922033  0.56954685  0.80498496    -0.49300
C316        C  0.29117535  0.45916144  0.87487453     0.72800
O317        O  0.31558494  0.43452341  0.84862975    -0.44100
C318        C  0.42750166  0.43715428  0.81283753     0.77500
O319        O  0.29388453  0.49261301  0.76147275    -0.56000
O320        O  0.42937945  0.47849808  0.82497544    -0.46100
O321        O  0.36122611  0.50976285  0.73744183    -0.52400
C322        C  0.37254938  0.57723702  0.84128042     0.87600
O323        O  0.29727985  0.50160445  0.86964852    -0.54300
O324        O  0.38759451  0.42474803  0.80040640    -0.57600
C325        C  0.37219498  0.66121773  0.83006773    -0.13900
C326        C  0.38399513  0.62398553  0.85605694    -0.29100
H327        H  0.35392531  0.65733897  0.79713880     0.15100
H328        H  0.40310988  0.62777149  0.88851616     0.15700
C329        C  0.23200379  0.46422607  0.93718518    -0.13900
C330        C  0.26047320  0.43895368  0.91033760    -0.29100
H331        H  0.22745336  0.50082293  0.93040224     0.15100
H332        H  0.26472941  0.40234563  0.91725773     0.15700
C333        C  0.36433878  0.39178583  0.10318722    -0.13900
C334        C  0.32511541  0.37577019  0.12222067    -0.29100
H335        H  0.36247257  0.41663745  0.07463404     0.15100
H336        H  0.32669021  0.35106288  0.15091221     0.15700
C337        C  0.52537398  0.47255707  0.24801502    -0.13900
C338        C  0.55127494  0.43823029  0.23011394    -0.29100
H339        H  0.48792198  0.47380020  0.24209320     0.15100
H340        H  0.58881910  0.43726650  0.23533455     0.15700
C341        C  0.56376607  0.72577269  0.91522585    -0.13900
C342        C  0.53186530  0.75258780  0.93610734    -0.29100
H343        H  0.56382341  0.72261488  0.87757295     0.15100
H344        H  0.53251986  0.75640103  0.97368845     0.15700
C345        C  0.62905903  0.60176937  0.12683444    -0.13900
C346        C  0.61638129  0.63269154  0.15867602    -0.29100
H347        H  0.63567490  0.56615088  0.13696954     0.15100
H348        H  0.61027161  0.66841445  0.14871400     0.15700
C349        C  0.77827803  0.73264301  0.04158084    -0.13900
C350        C  0.77763630  0.69157921  0.02113368    -0.29100
H351        H  0.74696088  0.75422293  0.04170723     0.15100
H352        H  0.80851939  0.66946780  0.02138695     0.15700
C353        C  0.87844606  0.93947525  0.17405126    -0.13900
C354        C  0.87092045  0.92053495  0.13258710    -0.29100
H355        H  0.89286558  0.91892457  0.20274106     0.15100
H356        H  0.85603613  0.94073944  0.10389601     0.15700
C357        C  0.74737526  0.12779034  0.10717445    -0.13900
C358        C  0.72230788  0.10216170  0.07806511    -0.29100
H359        H  0.74975117  0.16458133  0.10119043     0.15100
H360        H  0.72010173  0.06532708  0.08391294     0.15700
C361        C  0.85868405  0.15888496  0.92430475    -0.13900
C362        C  0.82136975  0.18189772  0.90671447    -0.29100
H363        H  0.85407672  0.13198858  0.95040115     0.15100
H364        H  0.82600304  0.20934124  0.88122404     0.15700
C365        C  0.05865880  0.07763202  0.76373136    -0.13900
C366        C  0.02316410  0.07888662  0.79414567    -0.29100
H367        H  0.08191571  0.10654729  0.76078030     0.15100
H368        H  0.00158952  0.04884223  0.79860958     0.15700
C369        C  0.01660135  0.79473842  0.05594792    -0.13900
C370        C  0.05308310  0.81063006  0.08009215    -0.29100
H371        H  0.01708233  0.79564095  0.01811058     0.15100
H372        H  0.05262764  0.80980594  0.11791935     0.15700
C373        C  0.13474005  0.90270076  0.84860667    -0.13900
C374        C  0.11712976  0.92483623  0.88531571    -0.31500
H375        H  0.15849925  0.87350050  0.85324479     0.15100
H376        H  0.09459753  0.95492648  0.88043376     0.15700
C377        C  0.31188140  0.85821139  0.94887942    -0.13900
C378        C  0.28209062  0.83473777  0.97596246    -0.29100
H379        H  0.30813279  0.89525210  0.94512304     0.15100
H380        H  0.28647676  0.79777275  0.97995987     0.15700
C381        C  0.94689755  0.34711203  0.84360536    -0.13900
C382        C  0.96522905  0.31250747  0.81875982    -0.29100
H383        H  0.94882787  0.34596058  0.88140329     0.15100
H384        H  0.96212224  0.31316587  0.78102317     0.15700
C385        C  0.81509622  0.41233898  0.65142905    -0.13900
C386        C  0.81115889  0.44496625  0.61821268    -0.29100
H387        H  0.81058416  0.37640967  0.64311613     0.15100
H388        H  0.81588263  0.48085719  0.62662883     0.15700
C389        C  0.15987236  0.51170755  0.16413612    -0.13900
C390        C  0.11598032  0.52015823  0.17768808    -0.29100
H391        H  0.18876545  0.52558629  0.18380424     0.15100
H392        H  0.08696691  0.50633901  0.15819489     0.15700
C393        C  0.08554466  0.39011566  0.34134184    -0.13900
C394        C  0.06786926  0.42755567  0.36222504    -0.29100
H395        H  0.10903378  0.39363954  0.31200424     0.15100
H396        H  0.04445348  0.42383482  0.39158087     0.15700
C397        C  0.90991636  0.33464892  0.45128988    -0.13900
C398        C  0.91117471  0.30302739  0.41782271    -0.29100
H399        H  0.94085816  0.34097005  0.47210262     0.15100
H400        H  0.88096278  0.29763082  0.39571868     0.15700
C401        C  0.29749392  0.52111152  0.68335032    -0.13900
C402        C  0.32213748  0.54290612  0.65039375    -0.29100
H403        H  0.25971209  0.52034573  0.68063332     0.15100
H404        H  0.35993697  0.54363185  0.65258016     0.15700
C405        C  0.19209196  0.61185806  0.39804885    -0.13900
C406        C  0.21317520  0.58500710  0.43047413    -0.29100
H407        H  0.19596006  0.64886850  0.39850483     0.15100
H408        H  0.20961050  0.54798466  0.42903882     0.15700
C409        C  0.92876943  0.56189308  0.74091782    -0.13900
C410        C  0.90444252  0.59920440  0.72607564    -0.29100
H411        H  0.96552248  0.55824516  0.73245385     0.15100
H412        H  0.86748353  0.60246750  0.73372827     0.15700
C413        C  0.08758678  0.64367925  0.59422366    -0.13900
C414        C  0.12691856  0.66048166  0.61230426    -0.29100
H415        H  0.08904241  0.61972996  0.56559925     0.15100
H416        H  0.12525538  0.68450648  0.64083631     0.15700
C417        C  0.99383820  0.82027179  0.68958533    -0.13900
C418        C  0.01082942  0.85426828  0.66282958    -0.29100
H419        H  0.99769482  0.82146030  0.72722019     0.15100
H420        H  0.00700178  0.85337048  0.62520588     0.15700
C421        C  0.47373026  0.71339721  0.33265952    -0.13900
C422        C  0.50033337  0.68400276  0.35824054    -0.29100
H423        H  0.46847793  0.70719043  0.29579616     0.15100
H424        H  0.50618386  0.69003784  0.39505517     0.15700
C425        C  0.79897378  0.99923190  0.35298758    -0.13900
C426        C  0.77388622  0.02813075  0.32538536    -0.29100
H427        H  0.83662584  0.99702198  0.34928597     0.15100
H428        H  0.73607609  0.02910373  0.32766799     0.15700
C429        C  0.60848709  0.87157209  0.39236688    -0.13900
C430        C  0.56961617  0.88747949  0.41298507    -0.29100
H431        H  0.60614131  0.84930830  0.36241367     0.15100
H432        H  0.57212388  0.91063343  0.44221267     0.15700
C433        C  0.17249604  0.22011137  0.48643671    -0.13900
C434        C  0.13373625  0.19901260  0.47246709    -0.29100
H435        H  0.17653978  0.25653606  0.47909962     0.15100
H436        H  0.12895274  0.16284502  0.48050095     0.15700
C437        C  0.42936857  0.18858441  0.16366651    -0.13900
C438        C  0.45409002  0.21681532  0.19055161    -0.29100
H439        H  0.42836269  0.19392574  0.12615446     0.15100
H440        H  0.45531027  0.21127748  0.22804548     0.15700
C441        C  0.30785016  0.12662102  0.35221036    -0.13900
C442        C  0.33110500  0.10968724  0.38964901    -0.29100
H443        H  0.27932375  0.15116572  0.35661970     0.15100
H444        H  0.36084639  0.08654235  0.38537710     0.15700
C445        C  0.40185481  0.96430514  0.25452923    -0.13900
C446        C  0.37702137  0.93390365  0.27930611    -0.29100
H447        H  0.43971867  0.96201151  0.25506817     0.15100
H448        H  0.33921248  0.93695211  0.27987461     0.15700
C449        C  0.63227204  0.37284723  0.51659293    -0.13900
C450        C  0.66963386  0.35029655  0.50005625    -0.29100
H451        H  0.63018672  0.41010884  0.51475462     0.15100
H452        H  0.67159111  0.31302939  0.50236399     0.15700
C453        C  0.38731581  0.23918088  0.57994112    -0.13900
C454        C  0.41529909  0.26507558  0.55338696    -0.29100
H455        H  0.39224279  0.23772427  0.61747840     0.15100
H456        H  0.41062319  0.26597850  0.51579568     0.15700
C457        C  0.69136497  0.94585168  0.60256645    -0.13900
C458        C  0.71043420  0.96779672  0.56619468    -0.29100
H459        H  0.69028250  0.90859436  0.60358664     0.15100
H460        H  0.71131393  0.00508363  0.56528853     0.15700
C461        C  0.57745653  0.14119942  0.62485639    -0.13900
C462        C  0.59877775  0.17974344  0.63738849    -0.29100
H463        H  0.54843322  0.14274971  0.60035553     0.15100
H464        H  0.62791318  0.17824714  0.66173606     0.15700
C465        C  0.65542881  0.04138782  0.82144123    -0.13900
C466        C  0.62900821  0.06498260  0.85159376    -0.29100
H467        H  0.69291506  0.03838941  0.82672580     0.15100
H468        H  0.59151827  0.06801456  0.84631761     0.15700
C469        C  0.99727767  0.13118079  0.18256261    -0.13900
C470        C  0.95482729  0.15044119  0.18961405    -0.29100
H471        H  0.00032523  0.09395884  0.18255367     0.15100
H472        H  0.95110733  0.18740211  0.19301925     0.15700
C473        C  0.04319488  0.19155224  0.22052537    -0.13900
C474        C  0.04255240  0.17525441  0.26462357    -0.29100
H475        H  0.04265383  0.22844746  0.21442565     0.15100
H476        H  0.04226105  0.13845271  0.27110050     0.15700
C477        C  0.07679390  0.21595227  0.12255716    -0.13900
C478        C  0.04214933  0.18615058  0.13273774    -0.29100
H479        H  0.09543166  0.23028183  0.15190737     0.15100
H480        H  0.02512311  0.16895380  0.10415849     0.15700
C481        C  0.08964275  0.19658210  0.99195985    -0.13900
C482        C  0.07449671  0.20584886  0.03528703    -0.29100
H483        H  0.12659709  0.19151601  0.98560047     0.15100
H484        H  0.03727681  0.21116830  0.03986874     0.15700
C485        C  0.11515860  0.29761124  0.06638272    -0.13900
C486        C  0.13445794  0.25524790  0.07193571    -0.29100
H487        H  0.07752501  0.30173620  0.06404091     0.15100
H488        H  0.17227981  0.25202243  0.07352621     0.15700
C489        C  0.13063671  0.12727652  0.08040145    -0.13900
C490        C  0.13998878  0.17156950  0.08919255    -0.29100
H491        H  0.10420013  0.12127734  0.05403044     0.15100
H492        H  0.16426978  0.17783793  0.11753967     0.15700
C493        C  0.08552714  0.12900184  0.17830999    -0.13900
C494        C  0.09114111  0.09482466  0.14695672    -0.29100
H495        H  0.11647435  0.14462907  0.19262269     0.15100
H496        H  0.05969055  0.08238702  0.13039016     0.15700
C497        C  0.13279671  0.04299039  0.09281206    -0.13900
C498        C  0.16106972  0.00597673  0.10045989    -0.29100
H499        H  0.10553091  0.04010814  0.06653905     0.15100
H500        H  0.18709458  0.00576254  0.12795656     0.15700
C501        C  0.17977462  0.09227885  0.14842069    -0.13900
C502        C  0.22357927  0.08867472  0.13175217    -0.29100
H503        H  0.17578668  0.09486470  0.18588698     0.15100
H504        H  0.22880885  0.08383092  0.09469003     0.15700
C505        C  0.61299804  0.30720062  0.92699551    -0.13900
C506        C  0.60198009  0.26820395  0.95009639    -0.29100
H507        H  0.64101841  0.30561819  0.90157964     0.15100
H508        H  0.57272826  0.26737879  0.97388485     0.15700
C509        C  0.57929042  0.34160205  0.02363924    -0.13900
C510        C  0.56319708  0.35582705  0.98141532    -0.29100
H511        H  0.61463422  0.32833307  0.02756632     0.15100
H512        H  0.52716897  0.36780579  0.97887500     0.15700
C513        C  0.65816447  0.42047973  0.92180315    -0.13900
C514        C  0.63537670  0.38592475  0.94491387    -0.29100
H515        H  0.68888838  0.43060689  0.94128820     0.15100
H516        H  0.65417654  0.37511670  0.97634062     0.15700
C517        C  0.62357240  0.51767417  0.92258008    -0.13900
C518        C  0.65352649  0.50037488  0.89129987    -0.29100
H519        H  0.59554307  0.49682875  0.93602393     0.15100
H520        H  0.68080345  0.52256584  0.87833912     0.15700
C521        C  0.69724433  0.44249885  0.84699230    -0.13900
C522        C  0.74026932  0.45253584  0.86321905    -0.29100
H523        H  0.69432053  0.43172426  0.81118965     0.15100
H524        H  0.74441555  0.46613522  0.89791724     0.15700
C525        C  0.60106394  0.41306918  0.81530313    -0.13900
C526        C  0.60840082  0.44429151  0.84896725    -0.29100
H527        H  0.63068143  0.39405689  0.80174954     0.15100
H528        H  0.57812967  0.46111737  0.86377823     0.15700
C529        C  0.55765114  0.35544267  0.85521925    -0.13900
C530        C  0.56122806  0.37337821  0.89821932    -0.29100
H531        H  0.57045260  0.32080328  0.84930172     0.15100
H532        H  0.54575154  0.40691482  0.90426576     0.15700
C533        C  0.55229350  0.36084483  0.76828996    -0.13900
C534        C  0.54647574  0.38141027  0.72625973    -0.29100
H535        H  0.55346081  0.32359780  0.77031957     0.15100
H536        H  0.54385270  0.41854230  0.72356602     0.15700
C537        C  0.51216199  0.42046652  0.81539594    -0.13900
C538        C  0.46818020  0.40535105  0.81328515    -0.29100
H539        H  0.51740326  0.45729626  0.81593828     0.15100
H540        H  0.46201783  0.36882595  0.81009248     0.15700
C541        C  0.87416280  0.70277420  0.51714886    -0.13900
C542        C  0.89122794  0.71299594  0.47464682    -0.29100
H543        H  0.83735534  0.69553358  0.52104290     0.15100
H544        H  0.92811696  0.72055609  0.47160997     0.15700
C545        C  0.82158676  0.75070043  0.43352876    -0.13900
C546        C  0.82469221  0.78892111  0.45945562    -0.29100
H547        H  0.79461316  0.75039993  0.40685323     0.15100
H548        H  0.85349379  0.79282015  0.48362062     0.15700
C549        C  0.80049694  0.65388657  0.41124573    -0.13900
C550        C  0.84431052  0.66596457  0.42370912    -0.29100
H551        H  0.77155585  0.67808930  0.41421174     0.15100
H552        H  0.87210596  0.64022349  0.42085041     0.15700
C553        C  0.74696410  0.61579928  0.35473008    -0.13900
C554        C  0.70818133  0.59552208  0.37084214    -0.29100
H555        H  0.74522098  0.63340468  0.32109389     0.15100
H556        H  0.70874176  0.57723801  0.40404239     0.15700
C557        C  0.79992181  0.56860250  0.40820016    -0.13900
C558        C  0.79381847  0.52643887  0.39062595    -0.29100
H559        H  0.80716404  0.57173472  0.44523534     0.15100
H560        H  0.78510149  0.52249686  0.35406314     0.15700
C561        C  0.84464099  0.65654220  0.32518519    -0.13900
C562        C  0.83304989  0.61490810  0.34274839    -0.29100
H563        H  0.81778426  0.68339973  0.32527336     0.15100
H564        H  0.85706644  0.58595709  0.34094518     0.15700
C565        C  0.90342077  0.71709076  0.34641177    -0.13900
C566        C  0.89192494  0.73168774  0.39014745    -0.29100
H567        H  0.92603998  0.74105074  0.32832247     0.15100
H568        H  0.90663574  0.76496477  0.39804793     0.15700
C569        C  0.89589347  0.68749367  0.26564179    -0.13900
C570        C  0.86881128  0.72137974  0.24732069    -0.29100
H571        H  0.92135094  0.67085865  0.24321063     0.15100
H572        H  0.84348088  0.73871913  0.26926468     0.15700
C573        C  0.93384056  0.63912707  0.32697448    -0.13900
C574        C  0.97837624  0.65038737  0.31787371    -0.29100
H575        H  0.92749373  0.60448031  0.33907327     0.15100
H576        H  0.98595180  0.68507347  0.30604191     0.15700
C577        C  0.46972805  0.91361338  0.66365864    -0.13900
C578        C  0.47753674  0.95158450  0.68870602    -0.29100
H579        H  0.49793173  0.89875236  0.64372659     0.15100
H580        H  0.44961914  0.96670224  0.70869200     0.15700
C581        C  0.40794368  0.87491151  0.71245858    -0.13900
C582        C  0.43941733  0.86596004  0.74702579    -0.29100
H583        H  0.37274449  0.86371709  0.71716151     0.15100
H584        H  0.47548827  0.87372242  0.74264062     0.15700
C585        C  0.42603647  0.84636252  0.63495056    -0.13900
C586        C  0.39444211  0.82074845  0.61079095    -0.29100
H587        H  0.45726950  0.82658075  0.64468457     0.15100
H588        H  0.40841090  0.78682819  0.60292771     0.15700
C589        C  0.32092674  0.78969011  0.57728952    -0.13900
C590        C  0.33630337  0.75056897  0.55730026    -0.29100
H591        H  0.28570594  0.79006752  0.59137613     0.15100
H592        H  0.37096987  0.74880386  0.54220599     0.15700
C593        C  0.35465827  0.83508767  0.49305301    -0.13900
C594        C  0.36745797  0.85160939  0.53478965    -0.29100
H595        H  0.32548030  0.81205413  0.49021548     0.15100
H596        H  0.39557056  0.87625586  0.53579053     0.15700
C597        C  0.30746978  0.91003166  0.59213427    -0.13900
C598        C  0.31912739  0.86718092  0.60760623    -0.29100
H599        H  0.31145696  0.91884981  0.55548719     0.15100
H600        H  0.31281294  0.85868011  0.64407548     0.15700
C601        C  0.34884854  0.94189478  0.65925748    -0.13900
C602        C  0.38930457  0.92617593  0.64062341    -0.29100
H603        H  0.34318296  0.93739335  0.69628789     0.15100
H604        H  0.39562544  0.93302995  0.60394454     0.15700
C605        C  0.21862913  0.94950969  0.63623575    -0.13900
C606        C  0.26144126  0.94615147  0.65568304    -0.29100
H607        H  0.21494435  0.95454507  0.59881679     0.15100
H608        H  0.26416241  0.94173273  0.69326817     0.15700
C609        C  0.31077745  0.99535287  0.60132807    -0.13900
C610        C  0.28241075  0.03254955  0.60652177    -0.29100
H611        H  0.33918889  0.99778199  0.57665622     0.15100
H612        H  0.25495814  0.03270265  0.63219286     0.15700
loop_ 
_geom_bond_atom_site_label_1 
_geom_bond_atom_site_label_2 
_geom_bond_distance 
_geom_bond_site_symmetry_2 
_ccdc_geom_bond_type 
C1          C597   1.533       .  S
C1          C601   1.537       .  S
C1          C606   1.527       .  S
C1          C609   1.535       .  S
C2          C586   1.548       .  S
C2          C589   1.539       .  S
C2          C594   1.538       .  S
C2          C598   1.518       .  S
C3          C577   1.528       .  S
C3          C581   1.540       .  S
C3          C585   1.544       .  S
C3          C602   1.518       .  S
C4          C561   1.523       .  S
C4          C565   1.549       .  S
C4          C569   1.534       .  S
C4          C573   1.537       .  S
C5          C549   1.534       .  S
C5          C553   1.529       .  S
C5          C557   1.523       .  S
C5          C562   1.532       .  S
C6          C542   1.530       .  S
C6          C545   1.537       .  S
C6          C550   1.517       .  S
C6          C566   1.544       .  S
C7          C525   1.528       .  S
C7          C529   1.525       .  S
C7          C533   1.525       .  S
C7          C537   1.533       .  S
C8          C513   1.555       .  S
C8          C518   1.528       .  S
C8          C521   1.539       .  S
C8          C526   1.522       .  S
C9          C505   1.537       .  S
C9          C510   1.536       .  S
C9          C514   1.545       .  S
C9          C530   1.513       .  S
C10         C489   1.538       .  S
C10         C494   1.533       .  S
C10         C497   1.538       .  S
C10         C501   1.545       .  S
C11         C477   1.533       .  S
C11         C482   1.536       .  S
C11         C486   1.527       .  S
C11         C490   1.540       .  S
C12         C469   1.529   1_455  S
C12         C473   1.525       .  S
C12         C478   1.528       .  S
C12         C493   1.531       .  S
In13         O15   2.244       .  S
In13         O16   2.247       .  S
In13         O24   2.222       .  S
In13         O18   2.243   1_545  S
In13         O20   2.260       .  S
In13         O21   2.250   1_545  S
In13         O22   2.240       .  S
In13         O25   2.245       .  S
C14          O20   1.257       .  A
C14          O22   1.256       .  A
C14         C465   1.470       .  S
O15          C23   1.257       .  A
O16          C23   1.259       .  A
C17          O24   1.262   1_565  A
C17          O18   1.264       .  A
C17         C457   1.470       .  S
C19          O21   1.259       .  A
C19          O25   1.258   1_565  A
C19         C578   1.471       .  S
C23         C461   1.467       .  S
In26         O28   2.232       .  S
In26         O29   2.243       .  S
In26         O37   2.232       .  S
In26         O31   2.254       .  S
In26         O33   2.248       .  S
In26         O34   2.244       .  S
In26         O35   2.254       .  S
In26         O38   2.263       .  S
C27          O33   1.258       .  A
C27          O35   1.261       .  A
C27         C454   1.473       .  S
O28          C36   1.261       .  A
O29          C36   1.261       .  A
C30          O37   1.259       .  A
C30          O31   1.259       .  A
C30         C449   1.469       .  S
C32          O34   1.257       .  A
C32          O38   1.260       .  A
C32         C534   1.474       .  S
C36         C462   1.468       .  S
In39         O41   2.252       .  S
In39         O42   2.243       .  S
In39         O50   2.263       .  S
In39         O44   2.261       .  S
In39         O46   2.252       .  S
In39         O47   2.269       .  S
In39         O48   2.259       .  S
In39         O51   2.272       .  S
C40          O46   1.259       .  A
C40          O48   1.262       .  A
C40         C445   1.476   1_545  S
O41          C49   1.263       .  A
O42          C49   1.258       .  A
C43          O50   1.257       .  A
C43          O44   1.257       .  A
C43         C437   1.475       .  S
C45          O47   1.260       .  A
C45          O51   1.261       .  A
C45         C502   1.487       .  S
C49         C441   1.471       .  S
In52         O54   2.240       .  S
In52         O55   2.265       .  S
In52         O63   2.250       .  S
In52         O57   2.259       .  S
In52         O59   2.242       .  S
In52         O60   2.255       .  S
In52         O61   2.253       .  S
In52         O64   2.266       .  S
C53          O59   1.260       .  A
C53          O61   1.264       .  A
C53         C433   1.472       .  S
O54          C62   1.256       .  A
O55          C62   1.260       .  A
C56          O63   1.259       .  A
C56          O57   1.259       .  A
C56         C453   1.475       .  S
C58          O60   1.258       .  A
C58          O64   1.261       .  A
C58         C610   1.480       .  S
C62         C442   1.472       .  S
In65         O67   2.254       .  S
In65         O68   2.236       .  S
In65         O76   2.252       .  S
In65         O70   2.257       .  S
In65         O72   2.234       .  S
In65         O73   2.269       .  S
In65         O74   2.247       .  S
In65         O77   2.250       .  S
C66          O72   1.259       .  A
C66          O74   1.263       .  A
C66         C458   1.467       .  S
O67          C75   1.261       .  A
O68          C75   1.259       .  A
C69          O76   1.258       .  A
C69          O70   1.258       .  A
C69         C425   1.473       .  S
C71          O73   1.260       .  A
C71          O77   1.258       .  A
C71         C546   1.477       .  S
C75         C429   1.471       .  S
In78         O80   2.248       .  S
In78         O81   2.243       .  S
In78         O89   2.265       .  S
In78         O83   2.261       .  S
In78         O85   2.242       .  S
In78         O86   2.264       .  S
In78         O87   2.260       .  S
In78         O90   2.243       .  S
C79          O85   1.260       .  A
C79          O87   1.261       .  A
C79         C421   1.473       .  S
O80          C88   1.261       .  A
O81          C88   1.260       .  A
C82          O89   1.257       .  A
C82          O83   1.256       .  A
C82         C446   1.477       .  S
C84          O86   1.261       .  A
C84          O90   1.260       .  A
C84         C593   1.475       .  S
C88         C430   1.470       .  S
In91         O93   2.249   1_655  S
In91         O94   2.229   1_655  S
In91        O102   2.253       .  S
In91         O96   2.251       .  S
In91         O98   2.256       .  S
In91         O99   2.250       .  S
In91        O100   2.258       .  S
In91        O103   2.265       .  S
C92          O98   1.257       .  A
C92         O100   1.257       .  A
C92         C417   1.473       .  S
O93         C101   1.261       .  A
O94         C101   1.261       .  A
C95         O102   1.261       .  A
C95          O96   1.260       .  A
C95         C410   1.476       .  S
C97          O99   1.258       .  A
C97         O103   1.260       .  A
C97         C541   1.478       .  S
C101        C413   1.469       .  S
In104       O106   2.239       .  S
In104       O107   2.243       .  S
In104       O115   2.242       .  S
In104       O109   2.268       .  S
In104       O111   2.236       .  S
In104       O112   2.248       .  S
In104       O113   2.256       .  S
In104       O116   2.266       .  S
C105        O111   1.259       .  A
C105        O113   1.262       .  A
C105        C406   1.470       .  S
O106        C114   1.261       .  A
O107        C114   1.260       .  A
C108        O115   1.256       .  A
C108        O109   1.258       .  A
C108        C402   1.473       .  S
C110        O112   1.258       .  A
C110        O116   1.260       .  A
C110        C590   1.478       .  S
C114        C414   1.467       .  S
In117       O119   2.254       .  S
In117       O120   2.233       .  S
In117       O128   2.244       .  S
In117       O122   2.258       .  S
In117       O124   2.225   1_455  S
In117       O125   2.244       .  S
In117       O126   2.256   1_455  S
In117       O129   2.250       .  S
C118        O124   1.259       .  A
C118        O126   1.258       .  A
C118        C398   1.466       .  S
O119        C127   1.262       .  A
O120        C127   1.259       .  A
C121        O128   1.259       .  A
C121        O122   1.259       .  A
C121        C434   1.473       .  S
C123        O125   1.260       .  A
C123        O129   1.260       .  A
C123        C474   1.472       .  S
C127        C393   1.472       .  S
In130       O132   2.244       .  S
In130       O133   2.240       .  S
In130       O141   2.239       .  S
In130       O135   2.269       .  S
In130       O137   2.242       .  S
In130       O138   2.271       .  S
In130       O139   2.249       .  S
In130       O142   2.239       .  S
C131        O137   1.262       .  A
C131        O139   1.258       .  A
C131        C390   1.472       .  S
O132        C140   1.264       .  A
O133        C140   1.261       .  A
C134        O141   1.257       .  A
C134        O135   1.258       .  A
C134        C405   1.473       .  S
C136        O138   1.260       .  A
C136        O142   1.257       .  A
C136        C574   1.473   1_455  S
C140        C394   1.471       .  S
In143       O145   2.244       .  S
In143       O146   2.221       .  S
In143       O154   2.245       .  S
In143       O148   2.257       .  S
In143       O150   2.253       .  S
In143       O151   2.253       .  S
In143       O152   2.254       .  S
In143       O155   2.251       .  S
C144        O150   1.259       .  A
C144        O152   1.261       .  A
C144        C409   1.475       .  S
O145        C153   1.261       .  A
O146        C153   1.259       .  A
C147        O154   1.260       .  A
C147        O148   1.261       .  A
C147        C381   1.475       .  S
C149        O151   1.257       .  A
C149        O155   1.261       .  A
C149        C522   1.472       .  S
C153        C385   1.464       .  S
In156       O158   2.233       .  S
In156       O159   2.234       .  S
In156       O167   2.231       .  S
In156       O161   2.247       .  S
In156       O163   2.230       .  S
In156       O164   2.224       .  S
In156       O165   2.249       .  S
In156       O168   2.268       .  S
C157        O163   1.256       .  A
C157        O165   1.260       .  A
C157        C450   1.465       .  S
O158        C166   1.259       .  A
O159        C166   1.261       .  A
C160        O167   1.256       .  A
C160        O161   1.259       .  A
C160        C397   1.463       .  S
C162        O164   1.257       .  A
C162        O168   1.262       .  A
C162        C558   1.473       .  S
C166        C386   1.462       .  S
In169       O171   2.226   1_554  S
In169       O172   2.228   1_554  S
In169       O180   2.260       .  S
In169       O174   2.262       .  S
In169       O176   2.255       .  S
In169       O177   2.252       .  S
In169       O178   2.263   1_554  S
In169       O181   2.260       .  S
C170        O176   1.262   1_556  A
C170        O178   1.261       .  A
C170        C378   1.481       .  S
O171        C179   1.259       .  A
O172        C179   1.260       .  A
C173        O180   1.257       .  A
C173        O174   1.258       .  A
C173        C370   1.476       .  S
C175        O177   1.259       .  A
C175        O181   1.263       .  A
C175        C498   1.480   1_565  S
C179        C374   1.456       .  S
In182       O184   2.201       .  S
In182       O185   2.249       .  S
In182       O193   2.241       .  S
In182       O187   2.266       .  S
In182       O189   2.253   1_565  S
In182       O190   2.234       .  S
In182       O191   2.264   1_565  S
In182       O194   2.257       .  S
C183        O189   1.261       .  A
C183        O191   1.259       .  A
C183        C365   1.479       .  S
O184        C192   1.258       .  A
O185        C192   1.262       .  A
C186        O193   1.256       .  A
C186        O187   1.260       .  A
C186        C418   1.474       .  S
C188        O190   1.259       .  A
C188        O194   1.263       .  A
C188        C605   1.474       .  S
C192        C373   1.460       .  S
In195       O197   2.256       .  S
In195       O198   2.249       .  S
In195       O206   2.272   1_655  S
In195       O200   2.246       .  S
In195       O202   2.251       .  S
In195       O203   2.251   1_655  S
In195       O204   2.257       .  S
In195       O207   2.289   1_655  S
C196        O202   1.258       .  A
C196        O204   1.260       .  A
C196        C382   1.473       .  S
O197        C205   1.262       .  A
O198        C205   1.259       .  A
C199        O206   1.262       .  A
C199        O200   1.258   1_455  A
C199        C366   1.478       .  S
C201        O203   1.258       .  A
C201        O207   1.261       .  A
C201        C481   1.488       .  S
C205        C361   1.474       .  S
In208       O210   2.256       .  S
In208       O211   2.244       .  S
In208       O219   2.256       .  S
In208       O213   2.248       .  S
In208       O215   2.247   1_556  S
In208       O216   2.248       .  S
In208       O217   2.240   1_556  S
In208       O220   2.253       .  S
C209        O215   1.260       .  A
C209        O217   1.261       .  A
C209        C358   1.472       .  S
O210        C218   1.262       .  A
O211        C218   1.259       .  A
C212        O219   1.256       .  A
C212        O213   1.256       .  A
C212        C466   1.469       .  S
C214        O216   1.260       .  A
C214        O220   1.261       .  A
C214        C506   1.475       .  S
C218        C362   1.474       .  S
In221       O223   2.222       .  S
In221       O224   2.238       .  S
In221       O232   2.239       .  S
In221       O226   2.240       .  S
In221       O228   2.259       .  S
In221       O229   2.264       .  S
In221       O230   2.249       .  S
In221       O233   2.242       .  S
C222        O228   1.257       .  A
C222        O230   1.259       .  A
C222        C426   1.474       .  S
O223        C231   1.258   1_545  A
O224        C231   1.263   1_545  A
C225        O232   1.262       .  A
C225        O226   1.262       .  A
C225        C357   1.471       .  S
C227        O229   1.262       .  A
C227        O233   1.257       .  A
C227        C470   1.474       .  S
C231        C353   1.460       .  S
In234       O236   2.243       .  S
In234       O237   2.219       .  S
In234       O245   2.219       .  S
In234       O239   2.255       .  S
In234       O241   2.251       .  S
In234       O242   2.230       .  S
In234       O243   2.250       .  S
In234       O246   2.272       .  S
C235        O241   1.258       .  A
C235        O243   1.259       .  A
C235        C369   1.475   1_655  S
O236        C244   1.258       .  A
O237        C244   1.260       .  A
C238        O245   1.257       .  A
C238        O239   1.265       .  A
C238        C349   1.466       .  S
C240        O242   1.256       .  A
C240        O246   1.265       .  A
C240        C570   1.473       .  S
C244        C354   1.464       .  S
In247       O249   2.237   1_556  S
In247       O250   2.234   1_556  S
In247       O258   2.228       .  S
In247       O252   2.241       .  S
In247       O254   2.224   1_556  S
In247       O255   2.234       .  S
In247       O256   2.260       .  S
In247       O259   2.228       .  S
C248        O254   1.257       .  A
C248        O256   1.259   1_554  A
C248        C350   1.470       .  S
O249        C257   1.261       .  A
O250        C257   1.257       .  A
C251        O258   1.261       .  A
C251        O252   1.261       .  A
C251        C341   1.467       .  S
C253        O255   1.261       .  A
C253        O259   1.266       .  A
C253        C517   1.469       .  S
C257        C345   1.463       .  S
In260       O262   2.225       .  S
In260       O263   2.246       .  S
In260       O271   2.262       .  S
In260       O265   2.229       .  S
In260       O267   2.253       .  S
In260       O268   2.245       .  S
In260       O269   2.254       .  S
In260       O272   2.252       .  S
C261        O267   1.259       .  A
C261        O269   1.259       .  A
C261        C337   1.475       .  S
O262        C270   1.259       .  A
O263        C270   1.260       .  A
C264        O271   1.262       .  A
C264        O265   1.260       .  A
C264        C422   1.476       .  S
C266        O268   1.260       .  A
C266        O272   1.262       .  A
C266        C554   1.474       .  S
C270        C346   1.465       .  S
In273       O275   2.240       .  S
In273       O276   2.232       .  S
In273       O284   2.262       .  S
In273       O278   2.252       .  S
In273       O280   2.255       .  S
In273       O281   2.243       .  S
In273       O282   2.250       .  S
In273       O285   2.264       .  S
C274        O280   1.260       .  A
C274        O282   1.260       .  A
C274        C438   1.476       .  S
O275        C283   1.262       .  A
O276        C283   1.261       .  A
C277        O284   1.258       .  A
C277        O278   1.256       .  A
C277        C338   1.475       .  S
C279        O281   1.257       .  A
C279        O285   1.261       .  A
C279        C509   1.474       .  S
C283        C333   1.465       .  S
In286       O288   2.222       .  S
In286       O289   2.250       .  S
In286       O297   2.240       .  S
In286       O291   2.271       .  S
In286       O293   2.266       .  S
In286       O294   2.246       .  S
In286       O295   2.240   1_554  S
In286       O298   2.275       .  S
C287        O293   1.258   1_556  A
C287        O295   1.258       .  A
C287        C329   1.476       .  S
O288        C296   1.261       .  A
O289        C296   1.263       .  A
C290        O297   1.254       .  A
C290        O291   1.262       .  A
C290        C389   1.471       .  S
C292        O294   1.258       .  A
C292        O298   1.262       .  A
C292        C485   1.482       .  S
C296        C334   1.468       .  S
In299       O301   2.247       .  S
In299       O302   2.255       .  S
In299       O310   2.255       .  S
In299       O304   2.270       .  S
In299       O306   2.252       .  S
In299       O307   2.259       .  S
In299       O308   2.234       .  S
In299       O311   2.244       .  S
C300        O306   1.261       .  A
C300        O308   1.260       .  A
C300        C342   1.469       .  S
O301        C309   1.258       .  A
O302        C309   1.260       .  A
C303        O310   1.258       .  A
C303        O304   1.260       .  A
C303        C377   1.481       .  S
C305        O307   1.261       .  A
C305        O311   1.261       .  A
C305        C582   1.476       .  S
C309        C325   1.473       .  S
In312       O314   2.255       .  S
In312       O315   2.239       .  S
In312       O323   2.271       .  S
In312       O317   2.247       .  S
In312       O319   2.243       .  S
In312       O320   2.264       .  S
In312       O321   2.253       .  S
In312       O324   2.255       .  S
C313        O319   1.259       .  A
C313        O321   1.260       .  A
C313        C401   1.471       .  S
O314        C322   1.264       .  A
O315        C322   1.260       .  A
C316        O323   1.259       .  A
C316        O317   1.256       .  A
C316        C330   1.473       .  S
C318        O320   1.260       .  A
C318        O324   1.258       .  A
C318        C538   1.477       .  S
C322        C326   1.474       .  S
C325        C326   1.345       .  D
C325        H327   1.087       .  S
C326        H328   1.087       .  S
C329        C330   1.343       .  D
C329        H331   1.086       .  S
C330        H332   1.087       .  S
C333        C334   1.341       .  D
C333        H335   1.087       .  S
C334        H336   1.087       .  S
C337        C338   1.345       .  D
C337        H339   1.086       .  S
C338        H340   1.086       .  S
C341        C342   1.342       .  D
C341        H343   1.086       .  S
C342        H344   1.086       .  S
C345        C346   1.340       .  D
C345        H347   1.087       .  S
C346        H348   1.086       .  S
C349        C350   1.340       .  D
C349        H351   1.087       .  S
C350        H352   1.086       .  S
C353        C354   1.337       .  D
C353        H355   1.087       .  S
C354        H356   1.087       .  S
C357        C358   1.343       .  D
C357        H359   1.086       .  S
C358        H360   1.087       .  S
C361        C362   1.345       .  D
C361        H363   1.087       .  S
C362        H364   1.087       .  S
C365        C366   1.345       .  D
C365        H367   1.086       .  S
C366        H368   1.087       .  S
C369        C370   1.344       .  D
C369        H371   1.087       .  S
C370        H372   1.086       .  S
C373        C374   1.340       .  D
C373        H375   1.087       .  S
C374        H376   1.087       .  S
C377        C378   1.347       .  D
C377        H379   1.086       .  S
C378        H380   1.086       .  S
C381        C382   1.344       .  D
C381        H383   1.086       .  S
C382        H384   1.087       .  S
C385        C386   1.340       .  D
C385        H387   1.086       .  S
C386        H388   1.087       .  S
C389        C390   1.339       .  D
C389        H391   1.087       .  S
C390        H392   1.087       .  S
C393        C394   1.345       .  D
C393        H395   1.086       .  S
C394        H396   1.086       .  S
C397        C398   1.341       .  D
C397        H399   1.087       .  S
C398        H400   1.086       .  S
C401        C402   1.343       .  D
C401        H403   1.087       .  S
C402        H404   1.086       .  S
C405        C406   1.342       .  D
C405        H407   1.086       .  S
C406        H408   1.086       .  S
C409        C410   1.344       .  D
C409        H411   1.087       .  S
C410        H412   1.086       .  S
C413        C414   1.342       .  D
C413        H415   1.086       .  S
C414        H416   1.086       .  S
C417        C418   1.345   1_655  D
C417        H419   1.087       .  S
C418        H420   1.086       .  S
C421        C422   1.345       .  D
C421        H423   1.086       .  S
C422        H424   1.087       .  S
C425        C426   1.345   1_565  D
C425        H427   1.086       .  S
C426        H428   1.087       .  S
C429        C430   1.343       .  D
C429        H431   1.087       .  S
C430        H432   1.087       .  S
C433        C434   1.342       .  D
C433        H435   1.087       .  S
C434        H436   1.087       .  S
C437        C438   1.344       .  D
C437        H439   1.086       .  S
C438        H440   1.087       .  S
C441        C442   1.345       .  D
C441        H443   1.086       .  S
C442        H444   1.087       .  S
C445        C446   1.344       .  D
C445        H447   1.087       .  S
C446        H448   1.087       .  S
C449        C450   1.340       .  D
C449        H451   1.087       .  S
C450        H452   1.087       .  S
C453        C454   1.344       .  D
C453        H455   1.086       .  S
C454        H456   1.087       .  S
C457        C458   1.341       .  D
C457        H459   1.086       .  S
C458        H460   1.087   1_565  S
C461        C462   1.340       .  D
C461        H463   1.087       .  S
C462        H464   1.086       .  S
C465        C466   1.342       .  D
C465        H467   1.087       .  S
C466        H468   1.087       .  S
C469        C470   1.349       .  D
C469        H471   1.086   1_655  S
C470        H472   1.086       .  S
C473        C474   1.346       .  D
C473        H475   1.086       .  S
C474        H476   1.086       .  S
C477        C478   1.361       .  D
C477        H479   1.088       .  S
C478        H480   1.086       .  S
C481        C482   1.349   1_556  D
C481        H483   1.084       .  S
C482        H484   1.085       .  S
C485        C486   1.351       .  D
C485        H487   1.086       .  S
C486        H488   1.088       .  S
C489        C490   1.349       .  D
C489        H491   1.087       .  S
C490        H492   1.088       .  S
C493        C494   1.360       .  D
C493        H495   1.086       .  S
C494        H496   1.087       .  S
C497        C498   1.353       .  D
C497        H499   1.089       .  S
C498        H500   1.083       .  S
C501        C502   1.350       .  D
C501        H503   1.086       .  S
C502        H504   1.086       .  S
C505        C506   1.350       .  D
C505        H507   1.089       .  S
C506        H508   1.085       .  S
C509        C510   1.352   1_554  D
C509        H511   1.083       .  S
C510        H512   1.087       .  S
C513        C514   1.375       .  D
C513        H515   1.088       .  S
C514        H516   1.089       .  S
C517        C518   1.343       .  D
C517        H519   1.085       .  S
C518        H520   1.087       .  S
C521        C522   1.355       .  D
C521        H523   1.082       .  S
C522        H524   1.084       .  S
C525        C526   1.355       .  D
C525        H527   1.083       .  S
C526        H528   1.082       .  S
C529        C530   1.351       .  D
C529        H531   1.084       .  S
C530        H532   1.083       .  S
C533        C534   1.348       .  D
C533        H535   1.086       .  S
C534        H536   1.085       .  S
C537        C538   1.345       .  D
C537        H539   1.086       .  S
C538        H540   1.087       .  S
C541        C542   1.349       .  D
C541        H543   1.086       .  S
C542        H544   1.088       .  S
C545        C546   1.352       .  D
C545        H547   1.086       .  S
C546        H548   1.084       .  S
C549        C550   1.358       .  D
C549        H551   1.084       .  S
C550        H552   1.089       .  S
C553        C554   1.349       .  D
C553        H555   1.088       .  S
C554        H556   1.085       .  S
C557        C558   1.348       .  D
C557        H559   1.088       .  S
C558        H560   1.086       .  S
C561        C562   1.354       .  D
C561        H563   1.088       .  S
C562        H564   1.082       .  S
C565        C566   1.372       .  D
C565        H567   1.089       .  S
C566        H568   1.090       .  S
C569        C570   1.345       .  D
C569        H571   1.088       .  S
C570        H572   1.087       .  S
C573        C574   1.350       .  D
C573        H575   1.081       .  S
C574        H576   1.087       .  S
C577        C578   1.349       .  D
C577        H579   1.081       .  S
C578        H580   1.079       .  S
C581        C582   1.357       .  D
C581        H583   1.075       .  S
C582        H584   1.070       .  S
C585        C586   1.375       .  D
C585        H587   1.090       .  S
C586        H588   1.087       .  S
C589        C590   1.351       .  D
C589        H591   1.090       .  S
C590        H592   1.087       .  S
C593        C594   1.349       .  D
C593        H595   1.085       .  S
C594        H596   1.089       .  S
C597        C598   1.355       .  D
C597        H599   1.087       .  S
C598        H600   1.089       .  S
C601        C602   1.355       .  D
C601        H603   1.083       .  S
C602        H604   1.086       .  S
C605        C606   1.347       .  D
C605        H607   1.087       .  S
C606        H608   1.087       .  S
C609        C610   1.354   1_565  D
C609        H611   1.085       .  S
C610        H612   1.081       .  S
