geometry optimzed in LAMMPS
_audit_creation_date              2020-11-30 
_audit_creation_method            'lammps2cif' 
_symmetry_space_group_name_H-M    'P1' 
_symmetry_Int_Tables_number       1 
_symmetry_cell_setting            triclinic 
loop_ 
_symmetry_equiv_pos_as_xyz 
  x,y,z 
_cell_length_a                    36.415485 
_cell_length_b                    35.664306360203305 
_cell_length_c                    35.89542048546731 
_cell_angle_alpha                 88.95395908704636 
_cell_angle_beta                  90.15280822234672 
_cell_angle_gamma                 90.28259602916651 
loop_ 
_atom_site_label 
_atom_site_type_symbol 
_atom_site_fract_x 
_atom_site_fract_y 
_atom_site_fract_z 
_atom_site_charge 
C1          C  0.66263544  0.66328609  0.60784889     0.79700
N2          N  0.63138156  0.67468791  0.62468951    -0.78600
C3          C  0.61762492  0.65542204  0.65454405     0.82200
N4          N  0.63531052  0.62434983  0.66722852    -0.78500
C5          C  0.66649354  0.61239773  0.65063071     0.82300
N6          N  0.68015467  0.63213429  0.62102114    -0.80200
C7          C  0.11271201  0.74546346  0.25749607     0.79700
N8          N  0.13164341  0.77707910  0.24805936    -0.78600
C9          C  0.16029947  0.78889914  0.26921874     0.82200
N10         N  0.16969728  0.76889228  0.30027603    -0.78500
C11         C  0.15106909  0.73714884  0.31010054     0.82300
N12         N  0.12263053  0.72559867  0.28859021    -0.80200
C13         C  0.61717499  0.74252500  0.14777772     0.79700
N14         N  0.61390090  0.76471612  0.17805118    -0.78600
C15         C  0.63814459  0.79325572  0.18379950     0.82200
N16         N  0.66607743  0.79889875  0.15933944    -0.78500
C17         C  0.66986085  0.77686463  0.12919474     0.82300
N18         N  0.64544787  0.74865074  0.12376302    -0.80200
C19         C  0.20532683  0.29600563  0.27287278     0.79700
N20         N  0.20659427  0.31323110  0.23884812    -0.78600
C21         C  0.23189530  0.30315315  0.21341137     0.82200
N22         N  0.25581655  0.27517859  0.22179455    -0.78500
C23         C  0.25449015  0.25710061  0.25542029     0.82300
N24         N  0.22900857  0.26758019  0.28083140    -0.80200
C25         C  0.75808484  0.30501188  0.16636916     0.79700
N26         N  0.74732606  0.28514020  0.13624604    -0.78600
C27         C  0.76699208  0.25501596  0.12501950     0.82200
N28         N  0.79779785  0.24510314  0.14407869    -0.78500
C29         C  0.80896887  0.26465551  0.17420911     0.82300
N30         N  0.78894182  0.29448597  0.18521312    -0.80200
C31         C  0.81746566  0.17542390  0.61671143     0.79700
N32         N  0.78472877  0.16903131  0.59962739    -0.78600
C33         C  0.76232119  0.14072654  0.61141076     0.82200
N34         N  0.77276420  0.11897350  0.64097160    -0.78500
C35         C  0.80527787  0.12498843  0.65857664     0.82300
N36         N  0.82735111  0.15355075  0.64647365    -0.80200
C37         C  0.14902539  0.61098438  0.74012081     0.79700
N38         N  0.17723521  0.60313277  0.76380419    -0.78600
C39         C  0.18495864  0.62584091  0.79283548     0.82200
N40         N  0.16434923  0.65699810  0.79773933    -0.78500
C41         C  0.13601602  0.66530973  0.77431782     0.82300
N42         N  0.12871135  0.64230081  0.74543565    -0.80200
O43         O  0.08243661  0.00186704  0.09169250    -0.88800
C44         C  0.06589685  0.99158658  0.97918467     0.87200
Mg45       Mg  0.03428673  0.00275075  0.12391833     1.58100
O46         O  0.09182471  0.08143330  0.00578969    -0.88600
O47         O  0.12790648  0.03799476  0.07264191    -0.75900
C48         C  0.91336589  0.11770921  0.04035447     0.92300
O49         O  0.02115231  0.95534709  0.04684499    -0.75700
O50         O  0.91237014  0.09440206  0.06806580    -0.83200
Mg51       Mg  0.08474540  0.95699885  0.05349620     1.58000
C52         C  0.03570561  0.17101342  0.97899046     0.92200
O53         O  0.15183919  0.96283620  0.06251112    -0.81500
H54         H  0.12357636  0.11604714  0.03528684    -0.06800
C55         C  0.98224117  0.05943703  0.98893676     0.87100
O56         O  0.03825433  0.06803924  0.12414955    -0.76000
O57         O  0.08321245  0.99878457  0.00811731    -0.88700
O58         O  0.06192759  0.15117637  0.96590993    -0.81600
C59         C  0.12503249  0.04797274  0.91472661     0.92300
C60         C  0.17410604  0.97741389  0.03838046     0.92100
Mg61       Mg  0.00501004  0.12475399  0.03190296     1.58000
O62         O  0.94356100  0.12721758  0.02551801    -0.81500
O63         O  0.06891168  0.12683230  0.03905396    -0.75700
O64         O  0.13300348  0.03276781  0.94574673    -0.81600
O65         O  0.07452370  0.90897858  0.09942442    -0.83300
O66         O  0.96357495  0.05784355  0.14458846    -0.81600
C67         C  0.09609084  0.10822593  0.02690895     0.86600
O68         O  0.00299181  0.08964824  0.07882319    -0.88700
O69         O  0.00973079  0.07795626  0.99795714    -0.88800
O70         O  0.95997433  0.04601256  0.01321798    -0.75900
Mg71       Mg  0.12807934  0.03563248  0.00780824     1.58000
O72         O  0.10252756  0.07564632  0.91286809    -0.83300
H73         H  0.11507947  0.02907916  0.12723143    -0.07000
O74         O  0.00191232  0.00552366  0.07580567    -0.88500
H75         H  0.96732551  0.96974736  0.05114853    -0.06800
H76         H  0.03089726  0.12353215  0.11272298    -0.07000
C77         C  0.99547106  0.97680015  0.05779053     0.86600
C78         C  0.10859055  0.02300859  0.09855067     0.87100
C79         C  0.02405960  0.09505802  0.10541508     0.87200
H80         H  0.97707817  0.05445182  0.95976550    -0.07000
O81         O  0.05322872  0.01739449  0.95758601    -0.76000
Mg82       Mg  0.95962745  0.04967263  0.07763371     1.58000
H83         H  0.06121313  0.96259773  0.97216416    -0.07000
C84         C  0.04594780  0.90971464  0.12042587     0.92200
O85         O  0.98079691  0.00032765  0.15215830    -0.83200
C86         C  0.97845255  0.03242964  0.16507584     0.92200
O87         O  0.16215149  0.98509692  0.00650358    -0.83200
Mg88       Mg  0.05590392  0.08262026  0.95890742     1.58200
O89         O  0.03040684  0.94029066  0.12776615    -0.81500
O90         O  0.00434078  0.15690696  0.97943441    -0.83200
C91         C  0.07896954  0.25010562  0.03061121     0.79700
N92         N  0.07457110  0.21999494  0.00810474    -0.78600
C93         C  0.04103869  0.20495635  0.00245890     0.82200
N94         N  0.01175681  0.22014112  0.02049651    -0.78500
C95         C  0.01548397  0.25000761  0.04381000     0.82300
N96         N  0.04941771  0.26571361  0.04787917    -0.80200
C97         C  0.03519097  0.08219263  0.23558288     0.79700
N98         N  0.05218069  0.05296528  0.25380619    -0.78600
C99         C  0.04555124  0.01726559  0.24256504     0.82200
N100        N  0.02053718  0.01163625  0.21477735    -0.78500
C101        C  0.00263551  0.04042957  0.19745942     0.82300
N102        N  0.01053690  0.07572679  0.20772665    -0.80200
C103        C  0.25866051  0.00738404  0.08919712     0.79700
N104        N  0.22592468  0.99042307  0.08154215    -0.78600
C105        C  0.21137180  0.99269964  0.04696816     0.82200
N106        N  0.22985171  0.01287940  0.02015444    -0.78500
C107        C  0.26237054  0.03074668  0.02739952     0.82300
N108        N  0.27710378  0.02736866  0.06220705    -0.80200
O109        O  0.83017079  0.51610114  0.31997212    -0.88800
C110        C  0.84772389  0.49499891  0.43168074     0.87200
Mg111      Mg  0.87818830  0.51712848  0.28751857     1.58100
O112        O  0.82255328  0.58778004  0.41222821    -0.88600
O113        O  0.78705178  0.55203682  0.34276938    -0.75900
C114        C  0.00194598  0.62546890  0.37312096     0.92300
O115        O  0.89047166  0.46475129  0.36246653    -0.75700
O116        O  0.00198170  0.60497994  0.34388612    -0.83200
Mg117      Mg  0.82687371  0.46856141  0.35643651     1.58000
C118        C  0.88175678  0.66994185  0.44227207     0.92200
O119        O  0.76055744  0.47784696  0.34761256    -0.81500
H120        H  0.79167737  0.62511502  0.38421578    -0.06800
C121        C  0.93317615  0.56250911  0.42294337     0.87100
O122        O  0.87634289  0.58288019  0.28842119    -0.76000
O123        O  0.83080694  0.50625364  0.40359676    -0.88700
O124        O  0.85532545  0.65022958  0.45564749    -0.81600
C125        C  0.79053722  0.54595428  0.50096637     0.92300
C126        C  0.74051240  0.49090528  0.37367905     0.92100
Mg127      Mg  0.91044743  0.63101759  0.38474279     1.58000
O128        O  0.97220804  0.63310462  0.38947405    -0.81500
O129        O  0.84660367  0.63425122  0.37921335    -0.75700
O130        O  0.78122019  0.53373502  0.46944578    -0.81600
O131        O  0.83427224  0.42369686  0.30921912    -0.83300
O132        O  0.94793705  0.57143999  0.26514655    -0.81600
C133        C  0.81899087  0.61594545  0.39181012     0.86600
O134        O  0.91141654  0.60129706  0.33469927    -0.88700
O135        O  0.90518051  0.58093340  0.41557668    -0.88800
O136        O  0.95515529  0.55223548  0.39745960    -0.75900
Mg137      Mg  0.78636013  0.54256821  0.40747059     1.58000
O138        O  0.81485167  0.57204061  0.50375355    -0.83300
H139        H  0.79911988  0.54953848  0.28755206    -0.07000
O140        O  0.91048263  0.51684653  0.33538632    -0.88500
H141        H  0.94457194  0.47894241  0.35835796    -0.06800
H142        H  0.88430205  0.63760609  0.30162354    -0.07000
C143        C  0.91652189  0.48677910  0.35226381     0.86600
C144        C  0.80538088  0.53947908  0.31543520     0.87100
C145        C  0.89056105  0.60862747  0.30820937     0.87200
H146        H  0.93922060  0.55516777  0.45165374    -0.07000
O147        O  0.86158994  0.51767152  0.45499979    -0.76000
Mg148      Mg  0.95370336  0.56065114  0.33316239     1.58000
H149        H  0.85110261  0.46517762  0.43632077    -0.07000
C150        C  0.86339851  0.42418687  0.28905284     0.92200
O151        O  0.93179293  0.51355272  0.26035315    -0.83200
C152        C  0.93398987  0.54521738  0.24553225     0.92200
O153        O  0.75356918  0.49131557  0.40577224    -0.83200
Mg154      Mg  0.86043947  0.58238617  0.45728910     1.58200
O155        O  0.88040719  0.45452673  0.28235468    -0.81500
O156        O  0.91257729  0.65511189  0.44067494    -0.83200
C157        C  0.65786234  0.53522637  0.33005235     0.79700
N158        N  0.68970492  0.51567594  0.33430994    -0.78600
C159        C  0.70625694  0.51293328  0.36782386     0.82200
N160        N  0.69105197  0.53098830  0.39717223    -0.78500
C161        C  0.65956757  0.55147757  0.39373300     0.82300
N162        N  0.64208002  0.55229393  0.35997319    -0.80200
C163        C  0.88617496  0.58826551  0.16287957     0.79700
N164        N  0.90727049  0.58450557  0.19421471    -0.78600
C165        C  0.91181569  0.55058527  0.21075287     0.82200
N166        N  0.89420709  0.52039021  0.19590259    -0.78500
C167        C  0.87231310  0.52344799  0.16499293     0.82300
N168        N  0.86940130  0.55765032  0.14767466    -0.80200
C169        C  0.83869159  0.74537305  0.38408880     0.79700
N170        N  0.84281201  0.71610026  0.40864645    -0.78600
C171        C  0.87653072  0.70390293  0.41834343     0.82200
N172        N  0.90631864  0.72075855  0.40234830    -0.78500
C173        C  0.90298912  0.74978874  0.37729143     0.82300
N174        N  0.86879849  0.76295151  0.36893025    -0.80200
O175        O  0.08830783  0.92809435  0.36237083    -0.88800
C176        C  0.07456778  0.85905284  0.27794547     0.87200
Mg177      Mg  0.11970707  0.90939826  0.40916125     1.58100
O178        O  0.99522469  0.86475752  0.33432345    -0.88600
O179        O  0.03086301  0.94445723  0.35182716    -0.75900
C180        C  0.06320001  0.73183022  0.43288112     0.92300
O181        O  0.14200186  0.86650318  0.33017090    -0.75700
O182        O  0.09068316  0.74899162  0.44767924    -0.83200
Mg183      Mg  0.11446276  0.92112570  0.30907122     1.58000
C184        C  0.93708383  0.77080022  0.36742002     0.92200
O185        O  0.08712921  0.97862395  0.28219179    -0.81500
H186        H  0.95700554  0.89772803  0.35822042    -0.06800
C187        C  0.05998078  0.77809241  0.34816903     0.87100
O188        O  0.06778196  0.89387733  0.44219911    -0.76000
O189        O  0.06765119  0.88746753  0.29604608    -0.88700
O190        O  0.94377490  0.78562456  0.33504576    -0.81600
C191        C  0.98999771  0.85300710  0.23070452     0.92300
C192        C  0.05623498  0.98354709  0.26497909     0.92100
Mg193      Mg  0.00957514  0.80447326  0.40918745     1.58000
O194        O  0.03594066  0.74980811  0.42050192    -0.81500
O195        O  0.97835579  0.85808113  0.39329024    -0.75700
O196        O  0.00332472  0.88134152  0.24673023    -0.81600
O197        O  0.17178848  0.94791041  0.32471121    -0.83300
O198        O  0.13430779  0.83722451  0.47877161    -0.81600
C199        C  0.97536291  0.87415619  0.36154603     0.86600
O200        O  0.05659048  0.83536725  0.42701760    -0.88700
O201        O  0.03221355  0.79673999  0.35516373    -0.88800
O202        O  0.08924990  0.77982487  0.36761476    -0.75900
Mg203      Mg  0.01486848  0.91135664  0.30005351     1.58000
O204        O  0.97491986  0.82612552  0.24946757    -0.83300
H205        H  0.06268026  0.96676350  0.39238851    -0.07000
O206        O  0.12448742  0.85479461  0.38789397    -0.88500
H207        H  0.16036116  0.82252032  0.36143522    -0.06800
H208        H  0.02720163  0.86200225  0.46532412    -0.07000
C209        C  0.14310423  0.84703620  0.36024104     0.86600
C210        C  0.06111521  0.94758368  0.36945368     0.87100
C211        C  0.04993075  0.86324513  0.44601812     0.87200
H212        H  0.05961119  0.76032982  0.32409672    -0.07000
O213        O  0.05475021  0.82947756  0.27955741    -0.76000
Mg214      Mg  0.10893209  0.80785737  0.42171933     1.58000
H215        H  0.09854811  0.85923271  0.26058054    -0.07000
C216        C  0.18971937  0.93398368  0.35254626     0.92200
O217        O  0.15235334  0.89400199  0.45848852    -0.83200
C218        C  0.15173033  0.86867256  0.48351781     0.92200
O219        O  0.03105085  0.95921372  0.26623859    -0.83200
Mg220      Mg  0.00046115  0.80972814  0.30729221     1.58200
O221        O  0.17310986  0.92082341  0.38074876    -0.81500
O222        O  0.95979869  0.77296998  0.39401342    -0.83200
C223        C  0.08150144  0.62904927  0.43763964     0.79700
N224        N  0.08415673  0.66658762  0.44367950    -0.78600
C225        C  0.06233329  0.69097811  0.42508377     0.82200
N226        N  0.03774835  0.67746571  0.39956481    -0.78500
C227        C  0.03575629  0.64016636  0.39161037     0.82300
N228        N  0.05713871  0.61601885  0.41178992    -0.80200
C229        C  0.28950337  0.95090046  0.33660594     0.79700
N230        N  0.30468624  0.92586726  0.36139016    -0.78600
C231        C  0.28314043  0.90175802  0.38154904     0.82200
N232        N  0.24593222  0.90514897  0.37831723    -0.78500
C233        C  0.23031683  0.92993322  0.35341816     0.82300
N234        N  0.25232616  0.95249031  0.33255776    -0.80200
C235        C  0.97687790  0.83416912  0.12995587     0.79700
N236        N  0.00345289  0.85673835  0.11453107    -0.78600
C237        C  0.02729021  0.87600313  0.13645045     0.82200
N238        N  0.02217912  0.87429502  0.17404992    -0.78500
C239        C  0.99575822  0.85186034  0.18990151     0.82300
N240        N  0.97343118  0.83169567  0.16769806    -0.80200
O241        O  0.59542520  0.32922285  0.91431878    -0.88800
C242        C  0.48442573  0.34509455  0.92635945     0.87200
Mg243      Mg  0.62709594  0.37855547  0.91197852     1.58100
O244        O  0.50914999  0.31968884  0.83621826    -0.88600
O245        O  0.57600364  0.28377855  0.87855618    -0.75900
C246        C  0.54368458  0.50195266  0.79775038     0.92300
O247        O  0.55083284  0.39133974  0.95955764    -0.75700
O248        O  0.57181685  0.50286777  0.81944715    -0.83200
Mg249      Mg  0.55760491  0.32656989  0.95930847     1.58000
C250        C  0.47945980  0.37738537  0.74829828     0.92200
O251        O  0.56712225  0.25829241  0.95443181    -0.81500
H252        H  0.53640974  0.28730531  0.80077366    -0.06800
C253        C  0.49394663  0.43122999  0.85746724     0.87100
O254        O  0.62698833  0.37451796  0.84697304    -0.76000
O255        O  0.51288233  0.32794845  0.91837851    -0.88700
O256        O  0.46698184  0.35077672  0.76922158    -0.81600
C257        C  0.42027554  0.28473667  0.87159602     0.92300
C258        C  0.54325934  0.23584603  0.94032024     0.92100
Mg259      Mg  0.53489241  0.40829603  0.79171618     1.58000
O260        O  0.52894691  0.47108460  0.78917138    -0.81500
O261        O  0.54105135  0.34322585  0.78942411    -0.75700
O262        O  0.45096801  0.27640598  0.88601601    -0.81600
O263        O  0.60235021  0.33782321  0.00662999    -0.83300
O264        O  0.64844266  0.45004837  0.85484178    -0.81600
C265        C  0.52901512  0.31538097  0.80866608     0.86600
O266        O  0.58204746  0.40993092  0.82527694    -0.88700
O267        O  0.50220814  0.40315753  0.83938114    -0.88800
O268        O  0.51835159  0.45384241  0.86953577    -0.75900
Mg269      Mg  0.51217884  0.28255392  0.88233617     1.58000
O270        O  0.41804535  0.30892790  0.84478764    -0.83300
H271        H  0.62992491  0.29673914  0.88613892    -0.07000
O272        O  0.57976408  0.41101404  0.90895910    -0.88500
H273        H  0.55520275  0.44627637  0.94375999    -0.06800
H274        H  0.61513961  0.38117035  0.79183431    -0.07000
C275        C  0.56180277  0.41756047  0.93747064     0.86600
C276        C  0.60176817  0.30310942  0.89297835     0.87100
C277        C  0.60816753  0.38844216  0.82004704     0.87200
H278        H  0.46534788  0.43665200  0.86319126    -0.07000
O279        O  0.46276450  0.35826669  0.90135521    -0.76000
Mg280      Mg  0.58186460  0.45413214  0.86419151     1.58000
H281        H  0.47795876  0.34929494  0.95535826    -0.07000
C282        C  0.62295944  0.36728123  0.00534040     0.92200
O283        O  0.65504404  0.43301223  0.91249405    -0.83200
C284        C  0.66862957  0.43597578  0.88073449     0.92200
O285        O  0.51179175  0.24808711  0.93358145    -0.83200
Mg286      Mg  0.46301408  0.35637816  0.83676054     1.58200
O287        O  0.63072107  0.38310205  0.97448490    -0.81500
O288        O  0.48236157  0.40924670  0.76179862    -0.83200
C289        C  0.52114618  0.33280377  0.66534701     0.79700
N290        N  0.50160102  0.33752414  0.69723406    -0.78600
C291        C  0.49924856  0.37155083  0.71270207     0.82200
N292        N  0.51755821  0.40086662  0.69635135    -0.78500
C293        C  0.53786887  0.39699256  0.66472112     0.82300
N294        N  0.53871631  0.36266940  0.64841631    -0.80200
C295        C  0.59178412  0.14964631  0.90913512     0.79700
N296        N  0.58517025  0.18294812  0.92600712    -0.78600
C297        C  0.55135677  0.19828732  0.92467747     0.82200
N298        N  0.52437124  0.18015172  0.90554651    -0.78500
C299        C  0.53045684  0.14722397  0.88779318     0.82300
N300        N  0.56443900  0.13148804  0.89023920    -0.80200
C301        C  0.75109885  0.39222789  0.83729243     0.79700
N302        N  0.76642685  0.37391792  0.86730594    -0.78600
C303        C  0.74922496  0.37453392  0.90093872     0.82200
N304        N  0.71818644  0.39548085  0.90417069    -0.78500
C305        C  0.70318777  0.41463018  0.87473986     0.82300
N306        N  0.71966623  0.41255179  0.84116616    -0.80200
O307        O  0.86256414  0.33366252  0.99360300    -0.88800
C308        C  0.77805218  0.34475193  0.06131566     0.87200
Mg309      Mg  0.90857584  0.30233963  0.01285079     1.58100
O310        O  0.82979644  0.42788684  0.05365225    -0.88600
O311        O  0.85141676  0.39223704  0.97652571    -0.75900
C312        C  0.92794831  0.36058490  0.18822783     0.92300
O313        O  0.83020280  0.27771887  0.05530871    -0.75700
O314        O  0.94286274  0.33230679  0.17240190    -0.83200
Mg315      Mg  0.81049375  0.30574106  0.00029543     1.58000
C316        C  0.86259712  0.48800968  0.14553418     0.92200
O317        O  0.78646141  0.33353124  0.94226419    -0.81500
H318        H  0.85376283  0.46643919  0.02050614    -0.06800
C319        C  0.84530122  0.36209963  0.14162026     0.87100
O320        O  0.94021093  0.35595584  0.02717211    -0.76000
O321        O  0.79593208  0.35266756  0.03287397    -0.88700
O322        O  0.83098822  0.48059712  0.13062617    -0.81600
C323        C  0.72830543  0.42849089  0.06434139     0.92300
C324        C  0.76860264  0.36424531  0.93616051     0.92100
Mg325      Mg  0.90478241  0.41444044  0.11417484     1.58000
O326        O  0.91604761  0.38791620  0.16906903    -0.81500
O327        O  0.88763567  0.44500217  0.06040264    -0.75700
O328        O  0.74543143  0.41597116  0.03671866    -0.81600
O329        O  0.82717687  0.24832793  0.97440080    -0.83300
O330        O  0.97590960  0.28768348  0.08556278    -0.81600
C331        C  0.85648798  0.44771955  0.04437309     0.86600
O332        O  0.92388841  0.36680760  0.08496791    -0.88700
O333        O  0.85201438  0.39029313  0.12199570    -0.88800
O334        O  0.86486398  0.33259684  0.14090794    -0.75900
Mg335      Mg  0.79899478  0.40679938  0.00849192     1.58000
O336        O  0.74564231  0.44441283  0.09108878    -0.83300
H337        H  0.89252214  0.36107086  0.95508542    -0.07000
O338        O  0.88658151  0.29695540  0.06711041    -0.88500
H339        H  0.86027153  0.25975540  0.09960873    -0.06800
H340        H  0.96184430  0.39770748  0.05816853    -0.07000
C341        C  0.85939447  0.27732384  0.07495007     0.86600
C342        C  0.86945698  0.36184423  0.97395005     0.87100
C343        C  0.94313629  0.37410665  0.05727102     0.87200
H344        H  0.82143405  0.36229046  0.15938350    -0.07000
O345        O  0.77869027  0.36499032  0.09018788    -0.76000
Mg346      Mg  0.91884635  0.31323499  0.11376554     1.58000
H347        H  0.76182958  0.31944524  0.06182594    -0.07000
C348        C  0.85397779  0.23001396  0.98908111     0.92200
O349        O  0.95723975  0.27019595  0.02908007    -0.83200
C350        C  0.98123213  0.27030996  0.05452216     0.92200
O351        O  0.76695543  0.38951322  0.96022294    -0.83200
Mg352      Mg  0.80444476  0.42140285  0.10761020     1.58200
O353        O  0.88141570  0.24693445  0.00252400    -0.81500
O354        O  0.88889960  0.46507745  0.14430293    -0.83200
C355        C  0.62773419  0.43471260  0.08276531     0.79700
N356        N  0.66469498  0.44039002  0.08548158    -0.78600
C357        C  0.68813321  0.42054287  0.06450659     0.82200
N358        N  0.67424093  0.39425055  0.04087282    -0.78500
C359        C  0.63749705  0.38674362  0.03885961     0.82300
N360        N  0.61432084  0.40819592  0.05914220    -0.80200
C361        C  0.92615155  0.34348885  0.29143447     0.79700
N362        N  0.93498334  0.34007812  0.25470252    -0.78600
C363        C  0.91842798  0.36210259  0.22860721     0.82200
N364        N  0.89255963  0.38740328  0.23973174    -0.78500
C365        C  0.88209009  0.38981415  0.27610982     0.82300
N366        N  0.90004887  0.36843051  0.30186076    -0.80200
C367        C  0.83653433  0.12858715  0.97343683     0.79700
N368        N  0.86021166  0.11247953  0.99855872    -0.78600
C369        C  0.88019004  0.13401366  0.02219528     0.82200
N370        N  0.87788389  0.17206044  0.01836581    -0.78500
C371        C  0.85417825  0.18856122  0.99348529     0.82300
N372        N  0.83348022  0.16661944  0.97136588    -0.80200
O373        O  0.40845568  0.09935695  0.83261824    -0.88800
C374        C  0.41405270  0.98628929  0.84928820     0.87200
Mg375      Mg  0.40587203  0.13200360  0.88037415     1.58100
O376        O  0.32765152  0.01654338  0.81798920    -0.88600
O377        O  0.37444980  0.08349422  0.78483548    -0.75900
C378        C  0.28297174  0.04849233  0.99550442     0.92300
O379        O  0.45024252  0.05236964  0.89682163    -0.75700
O380        O  0.30756816  0.07418758  0.99894049    -0.83200
Mg381      Mg  0.45195652  0.05995505  0.83233109     1.58000
C382        C  0.23398094  0.98776292  0.86815793     0.92200
O383        O  0.45101836  0.07068136  0.76453449    -0.81500
H384        H  0.29596964  0.04640837  0.78287206    -0.06800
C385        C  0.34259338  0.99552759  0.92897637     0.87100
O386        O  0.34258015  0.13506726  0.87402947    -0.76000
O387        O  0.40918076  0.01603580  0.83140666    -0.88700
O388        O  0.25666952  0.97404371  0.84455821    -0.81600
C389        C  0.36029335  0.92510364  0.78387825     0.92300
C390        C  0.43633242  0.04818170  0.74113582     0.92100
Mg391      Mg  0.28194236  0.04395045  0.90185328     1.58000
O392        O  0.27495049  0.03615877  0.96368829    -0.81500
O393        O  0.28263058  0.05167518  0.83748689    -0.75700
O394        O  0.37606770  0.95622805  0.77766545    -0.81600
O395        O  0.49957069  0.10468191  0.84408981    -0.83300
O396        O  0.34966295  0.15237676  0.95219458    -0.81600
C397        C  0.30193484  0.03827902  0.81140980     0.86600
O398        O  0.31987219  0.08765843  0.90649845    -0.88700
O399        O  0.32520952  0.00538772  0.90062320    -0.88800
O400        O  0.35628930  0.01922524  0.95149546    -0.75900
Mg401      Mg  0.37481945  0.01847662  0.78424757     1.58000
O402        O  0.33250543  0.92294210  0.80582788    -0.83300
H403        H  0.38555414  0.13740030  0.79864037    -0.07000
O404        O  0.40127871  0.08349830  0.91432430    -0.88500
H405        H  0.43405080  0.05664315  0.95080534    -0.06800
H406        H  0.28802570  0.12439014  0.87949229    -0.07000
C407        C  0.42856296  0.06405017  0.92199361     0.86600
C408        C  0.38960850  0.10810773  0.80513551     0.87100
C409        C  0.31553686  0.11601966  0.88666627     0.87200
H410        H  0.34664694  0.96594175  0.93453934    -0.07000
O411        O  0.38732517  0.96530493  0.85992351    -0.76000
Mg412      Mg  0.35495790  0.08420546  0.95379372     1.58000
H413        H  0.44177831  0.97795031  0.85622954    -0.07000
C414        C  0.49798963  0.12749047  0.87139172     0.92200
O415        O  0.40569229  0.16196364  0.93268393    -0.83200
C416        C  0.37448424  0.17469277  0.93925348     0.92200
O417        O  0.42543165  0.01670571  0.75245964    -0.83200
Mg418      Mg  0.32363677  0.96785620  0.85337938     1.58200
O419        O  0.46743217  0.13540336  0.88602165    -0.81500
O420        O  0.24520599  0.99624254  0.89987190    -0.83200
C421        C  0.44540856  0.08067198  0.64256275     0.79700
N422        N  0.45014155  0.07877963  0.68025724    -0.78600
C423        C  0.42753304  0.05734180  0.70159786     0.82200
N424        N  0.39987659  0.03771902  0.68482423    -0.78500
C425        C  0.39357279  0.04005651  0.64739152     0.82300
N426        N  0.41755099  0.06076743  0.62627799    -0.80200
C427        C  0.33689973  0.27135017  0.92953048     0.79700
N428        N  0.36098009  0.28714154  0.90454462    -0.78600
C429        C  0.38801539  0.26614411  0.88937236     0.82200
N430        N  0.39162104  0.22979675  0.90114114    -0.78500
C431        C  0.36764648  0.21359597  0.92582145     0.82300
N432        N  0.34031399  0.23449179  0.93971204    -0.80200
C433        C  0.13623357  0.97923416  0.83982653     0.79700
N434        N  0.17343193  0.97509538  0.83967601    -0.78600
C435        C  0.19492220  0.99718594  0.86078952     0.82200
N436        N  0.17874963  0.02377933  0.88226590    -0.78500
C437        C  0.14175296  0.02959654  0.88186454     0.82300
N438        N  0.12055522  0.00607274  0.86134310    -0.80200
O439        O  0.57924007  0.49428357  0.54973849    -0.88800
C440        C  0.57032704  0.55777464  0.63902117     0.87200
Mg441      Mg  0.60937350  0.51504391  0.50261931     1.58100
O442        O  0.48896370  0.55619745  0.58564359    -0.88600
O443        O  0.52188732  0.47809283  0.56162842    -0.75900
C444        C  0.55889331  0.69518772  0.48997630     0.92300
O445        O  0.63530899  0.55285979  0.58365916    -0.75700
O446        O  0.58536402  0.67810961  0.47381618    -0.83200
Mg447      Mg  0.60712686  0.49726539  0.60251088     1.58000
C448        C  0.43338783  0.65333506  0.55613668     0.92200
O449        O  0.57871484  0.43828070  0.62637209    -0.81500
H450        H  0.45115037  0.52562665  0.55918219    -0.06800
C451        C  0.55619101  0.64260133  0.57253700     0.87100
O452        O  0.55669983  0.53318731  0.47253052    -0.76000
O453        O  0.56201894  0.53051415  0.61972615    -0.88700
O454        O  0.43963415  0.63574283  0.58732452    -0.81600
C455        C  0.48686869  0.56272464  0.68880593     0.92300
C456        C  0.54846217  0.43247132  0.64454554     0.92100
Mg457      Mg  0.50413113  0.62166153  0.51189331     1.58000
O458        O  0.53152923  0.67715196  0.50251994    -0.81500
O459        O  0.47294053  0.56759568  0.52719936    -0.75700
O460        O  0.49920780  0.53491430  0.67145623    -0.81600
O461        O  0.66287734  0.47098809  0.58308217    -0.83300
O462        O  0.62484182  0.59211182  0.43665442    -0.81600
C463        C  0.46982701  0.54927051  0.55786751     0.86600
O464        O  0.54909419  0.59133750  0.49050293    -0.88700
O465        O  0.52817495  0.62428070  0.56528829    -0.88800
O466        O  0.58479344  0.64232420  0.55223591    -0.75900
Mg467      Mg  0.50827514  0.50842812  0.61579652     1.58000
O468        O  0.47229310  0.59060162  0.67118024    -0.83300
H469        H  0.55155416  0.45743711  0.51887478    -0.07000
O470        O  0.61692731  0.56825372  0.52680001    -0.88500
H471        H  0.65414971  0.59830806  0.55454820    -0.06800
H472        H  0.51703574  0.56768097  0.45207190    -0.07000
C473        C  0.63628717  0.57402056  0.55464545     0.86600
C474        C  0.55133676  0.47550450  0.54273089     0.87100
C475        C  0.54041723  0.56467855  0.47049061     0.87200
H476        H  0.55652348  0.65891880  0.59742288    -0.07000
O477        O  0.55122542  0.58760662  0.63917502    -0.76000
Mg478      Mg  0.60218489  0.61756894  0.49609808     1.58000
H479        H  0.59494549  0.55640457  0.65583649    -0.07000
C480        C  0.68064615  0.48696504  0.55621049     0.92200
O481        O  0.63951942  0.53306116  0.45217288    -0.83200
C482        C  0.64004929  0.56033265  0.42914332     0.92200
O483        O  0.52414440  0.45747383  0.64655156    -0.83200
Mg484      Mg  0.49675540  0.60887199  0.61304701     1.58200
O485        O  0.66392464  0.50179454  0.52879197    -0.81500
O486        O  0.45616024  0.65292597  0.52973804    -0.83200
C487        C  0.58005935  0.79782715  0.48731261     0.79700
N488        N  0.55641444  0.81064321  0.51361388    -0.78600
C489        C  0.53486045  0.78640334  0.53356281     0.82200
N490        N  0.53573583  0.74928274  0.52481924    -0.78500
C491        C  0.55941401  0.73593322  0.49863531     0.82300
N492        N  0.58158399  0.76042010  0.48021360    -0.80200
C493        C  0.47974267  0.58248488  0.79025693     0.79700
N494        N  0.47450724  0.58466759  0.75265104    -0.78600
C495        C  0.49335054  0.56215562  0.72972347     0.82200
N496        N  0.51819422  0.53753630  0.74474687    -0.78500
C497        C  0.52509651  0.53586545  0.78212030     0.82300
N498        N  0.50472944  0.55772571  0.80490067    -0.80200
C499        C  0.78006937  0.47867794  0.58021998     0.79700
N500        N  0.74300203  0.47311973  0.58043744    -0.78600
C501        C  0.72110278  0.49289220  0.55688886     0.82200
N502        N  0.73666831  0.51882608  0.53309814    -0.78500
C503        C  0.77353394  0.52605699  0.53352741     0.82300
N504        N  0.79512121  0.50503657  0.55664735    -0.80200
O505        O  0.41153300  0.82976605  0.58813393    -0.88800
C506        C  0.42473466  0.94306169  0.57051283     0.87200
Mg507      Mg  0.41037530  0.79818564  0.53934205     1.58100
O508        O  0.33578245  0.91780705  0.59703754    -0.88600
O509        O  0.37595061  0.84913519  0.63320753    -0.75900
C510        C  0.29873238  0.88350672  0.41574302     0.92300
O511        O  0.45857770  0.87575937  0.52616880    -0.75700
O512        O  0.32084377  0.85548759  0.41536903    -0.83200
Mg513      Mg  0.45640941  0.86808938  0.59060684     1.58000
C514        C  0.24947311  0.94567724  0.53913277     0.92200
O515        O  0.44968969  0.85756773  0.65820140    -0.81500
H516        H  0.30094565  0.88810433  0.62912783    -0.06800
C517        C  0.35762310  0.93491942  0.48548888     0.87100
O518        O  0.34624934  0.79779333  0.54271241    -0.76000
O519        O  0.41651079  0.91382871  0.58803335    -0.88700
O520        O  0.26904391  0.95898986  0.56575699    -0.81600
C521        C  0.37346808  0.00817863  0.62996022     0.92300
C522        C  0.43561932  0.88196826  0.67982107     0.92100
Mg523      Mg  0.29277305  0.89191886  0.50872222     1.58000
O524        O  0.29006003  0.89866367  0.44608092    -0.81500
O525        O  0.29060412  0.88451250  0.57358361    -0.75700
O526        O  0.38643063  0.97633651  0.63820463    -0.81600
O527        O  0.50253224  0.82211645  0.58121081    -0.83300
O528        O  0.35625852  0.77749137  0.46846919    -0.81600
C529        C  0.30895973  0.89663337  0.60124797     0.86600
O530        O  0.32588703  0.84426574  0.50730220    -0.88700
O531        O  0.33946320  0.92590573  0.51351130    -0.88800
O532        O  0.36989984  0.91043025  0.46323803    -0.75900
Mg533      Mg  0.38091931  0.91433853  0.63352895     1.58000
O534        O  0.34634069  0.01133876  0.60701780    -0.83300
H535        H  0.38265677  0.79421895  0.62058712    -0.07000
O536        O  0.40852516  0.84719796  0.50662686    -0.88500
H537        H  0.44405116  0.87229244  0.47152783    -0.06800
H538        H  0.29208773  0.80960706  0.53543679    -0.07000
C539        C  0.43710956  0.86527017  0.50008435     0.86600
C540        C  0.38996458  0.82301710  0.61409654     0.87100
C541        C  0.32009895  0.81708832  0.52855814     0.87200
H542        H  0.36322727  0.96426257  0.47979448    -0.07000
O543        O  0.40035077  0.96543559  0.55746225    -0.76000
Mg544      Mg  0.36495698  0.84548314  0.46360416     1.58000
H545        H  0.45339982  0.94965849  0.56595410    -0.07000
C546        C  0.50168005  0.80129781  0.55230280     0.92200
O547        O  0.41291137  0.77099693  0.48508232    -0.83200
C548        C  0.38161483  0.75703305  0.48278615     0.92200
O549        O  0.43109653  0.91446812  0.66728205    -0.83200
Mg550      Mg  0.33655701  0.96517203  0.56000479     1.58200
O551        O  0.47167989  0.79410083  0.53609134    -0.81500
O552        O  0.26340975  0.94521547  0.50749450    -0.83200
C553        C  0.33579390  0.67962903  0.53691768     0.79700
N554        N  0.36519865  0.66168264  0.55293498    -0.78600
C555        C  0.39973811  0.67530062  0.54677685     0.82200
N556        N  0.40406417  0.70532414  0.52295497    -0.78500
C557        C  0.37503131  0.72261442  0.50603167     0.82300
N558        N  0.34090835  0.70981441  0.51358536    -0.80200
C559        C  0.16845431  0.89648094  0.58184504     0.79700
N560        N  0.15389935  0.87804613  0.55210327    -0.78600
C561        C  0.17105974  0.88009241  0.51845860     0.82200
N562        N  0.20135368  0.90289698  0.51492597    -0.78500
C563        C  0.21561798  0.92209870  0.54435988     0.82300
N564        N  0.19907347  0.91832904  0.57777222    -0.80200
C565        C  0.39770859  0.83024953  0.76257669     0.79700
N566        N  0.41682630  0.83811302  0.73076949    -0.78600
C567        C  0.41684048  0.87299549  0.71575914     0.82200
N568        N  0.39673620  0.89999894  0.73270110    -0.78500
C569        C  0.37672303  0.89263876  0.76421053     0.82300
N570        N  0.37792471  0.85748817  0.77972092    -0.80200
C571        C  0.30044321  0.15506287  0.76190103     0.79700
N572        N  0.28982450  0.17092035  0.79437517    -0.78600
C573        C  0.25797395  0.16025721  0.81120507     0.82200
N574        N  0.23677328  0.13351341  0.79537414    -0.78500
C575        C  0.24668335  0.11783983  0.76286444     0.82300
N576        N  0.27853624  0.12871703  0.74614630    -0.80200
C577        C  0.22206422  0.09045113  0.74521481    -0.03700
C578        C  0.22049970  0.08833476  0.70628807    -0.06300
C579        C  0.19623861  0.06349196  0.68934359    -0.21400
C580        C  0.17382469  0.03959563  0.71095593     0.24400
C581        C  0.17515729  0.04175139  0.75000347    -0.18900
C582        C  0.19891387  0.06725280  0.76698864    -0.08900
C583        C  0.15108511  0.01148850  0.69160017    -0.19200
C584        C  0.14747963  0.97606506  0.70462562    -0.24000
C585        C  0.13917247  0.94501377  0.67908047     0.26400
C586        C  0.16128178  0.91295810  0.68133533    -0.20700
C587        C  0.16606053  0.89099008  0.64993165    -0.10400
C588        C  0.14807739  0.90052964  0.61653826    -0.10900
C589        C  0.12046175  0.92779664  0.61677379    -0.03900
C590        C  0.11610516  0.95020060  0.64796360    -0.19000
H591        H  0.23769089  0.10626618  0.68891776     0.10100
H592        H  0.19567870  0.06221601  0.65921225     0.10200
H593        H  0.15783887  0.02391503  0.76731513     0.09900
H594        H  0.19954138  0.06850687  0.79712095     0.11000
H595        H  0.14334759  0.01807032  0.66297793     0.11100
H596        H  0.15963148  0.96894741  0.73129566     0.13000
H597        H  0.17877125  0.90800145  0.70537468     0.09500
H598        H  0.18762345  0.87016087  0.65016711     0.11600
H599        H  0.10642259  0.93567664  0.59117191     0.08200
H600        H  0.09785029  0.97404196  0.64609993     0.10900
C601        C  0.33558828  0.16641293  0.74401919    -0.03700
C602        C  0.35654633  0.19567985  0.75901174    -0.06300
C603        C  0.39035932  0.20558181  0.74356593    -0.21400
C604        C  0.40373124  0.18726266  0.71218580     0.24400
C605        C  0.38282233  0.15828923  0.69659936    -0.18900
C606        C  0.34908474  0.14777669  0.71257098    -0.08900
C607        C  0.43970098  0.19959000  0.69716850    -0.19200
C608        C  0.44727538  0.20323671  0.66053259    -0.24000
C609        C  0.47745510  0.22881811  0.64836905     0.26400
C610        C  0.51012221  0.23126560  0.66918266    -0.20700
C611        C  0.53007818  0.26481754  0.66932046    -0.10400
C612        C  0.51795118  0.29587833  0.64820786    -0.10900
C613        C  0.48977447  0.29077220  0.62198653    -0.03900
C614        C  0.46957876  0.25721797  0.62201618    -0.19000
H615        H  0.34716417  0.21065511  0.78314364     0.10100
H616        H  0.40602141  0.22806123  0.75600109     0.10200
H617        H  0.39279589  0.14342464  0.67264852     0.09900
H618        H  0.33376670  0.12489926  0.70048098     0.11000
H619        H  0.45828849  0.21228869  0.71710400     0.11100
H620        H  0.42707490  0.19441762  0.64012211     0.13000
H621        H  0.51749586  0.20916730  0.68886898     0.09500
H622        H  0.55160928  0.26818489  0.68990140     0.11600
H623        H  0.47970952  0.31446290  0.60570336     0.08200
H624        H  0.44484541  0.25570938  0.60526149     0.10900
C625        C  0.11497220  0.26843167  0.02962060    -0.03700
C626        C  0.12011015  0.29676999  0.00245604    -0.06300
C627        C  0.15241402  0.29778648  0.98143719    -0.21400
C628        C  0.17946138  0.27059227  0.98786854     0.24400
C629        C  0.17757338  0.24826009  0.02053637    -0.18900
C630        C  0.14516684  0.24691817  0.04114347    -0.08900
C631        C  0.20313827  0.25959933  0.95636137    -0.19200
C632        C  0.20750474  0.22300507  0.94898670    -0.24000
C633        C  0.22155489  0.20855201  0.91347397     0.26400
C634        C  0.24869902  0.22698788  0.89212561    -0.20700
C635        C  0.26116463  0.21119479  0.85898407    -0.10400
C636        C  0.24595266  0.17732485  0.84637924    -0.10900
C637        C  0.21873409  0.15927309  0.86787867    -0.03900
C638        C  0.20706882  0.17448132  0.90118219    -0.19000
H639        H  0.09707911  0.31367146  0.99317395     0.10100
H640        H  0.15376458  0.31598383  0.95697905     0.10200
H641        H  0.19900701  0.22825833  0.02716633     0.09900
H642        H  0.14180639  0.22499099  0.06217023     0.11000
H643        H  0.21133801  0.28082572  0.93591033     0.11100
H644        H  0.19555579  0.20217431  0.96787598     0.13000
H645        H  0.26053943  0.25316532  0.90116692     0.09500
H646        H  0.28230924  0.22564622  0.84306799     0.11600
H647        H  0.20671616  0.13296088  0.85927975     0.08200
H648        H  0.18617823  0.15972357  0.91722738     0.10900
C649        C  0.14404386  0.58907719  0.70574179    -0.03700
C650        C  0.17236811  0.56590384  0.69301226    -0.06300
C651        C  0.17134892  0.55185443  0.65690626    -0.21400
C652        C  0.14157759  0.55973416  0.63329163     0.24400
C653        C  0.11172820  0.58009252  0.64714155    -0.18900
C654        C  0.11304487  0.59476212  0.68295774    -0.08900
C655        C  0.14553280  0.55402736  0.59276437    -0.19200
C656        C  0.11656612  0.54900127  0.57013369    -0.24000
C657        C  0.11665336  0.56329368  0.53115761     0.26400
C658        C  0.09329583  0.54725679  0.50459517    -0.20700
C659        C  0.08500064  0.56675581  0.47136938    -0.10400
C660        C  0.09889859  0.60319150  0.46509011    -0.10900
C661        C  0.12436659  0.61770945  0.49051671    -0.03900
C662        C  0.13363211  0.59784729  0.52282370    -0.19000
H663        H  0.19660415  0.56083945  0.70986806     0.10100
H664        H  0.19478336  0.53657792  0.64667405     0.10200
H665        H  0.08871276  0.58739617  0.62932745     0.09900
H666        H  0.09068351  0.61229965  0.69198075     0.11000
H667        H  0.17230884  0.56005959  0.58068065     0.11100
H668        H  0.09033589  0.54025200  0.58183977     0.13000
H669        H  0.07962973  0.52080924  0.51064337     0.09500
H670        H  0.06505674  0.55482144  0.45249925     0.11600
H671        H  0.13443420  0.64607975  0.48734899     0.08200
H672        H  0.15096363  0.61157596  0.54305520     0.10900
C673        C  0.11383299  0.94852133  0.82438708    -0.03700
C674        C  0.08229808  0.93548391  0.84317918    -0.06300
C675        C  0.06785577  0.89989079  0.83569024    -0.21400
C676        C  0.08386005  0.87748447  0.80842202     0.24400
C677        C  0.11329035  0.89213085  0.78739767    -0.18900
C678        C  0.12847342  0.92684529  0.79586417    -0.08900
C679        C  0.07523725  0.83682840  0.80762380    -0.19200
C680        C  0.08142722  0.81602280  0.77742127    -0.24000
C681        C  0.08869140  0.77519404  0.77977387     0.26400
C682        C  0.08351503  0.75338929  0.74806087    -0.20700
C683        C  0.09689292  0.71671658  0.74706030    -0.10400
C684        C  0.11652664  0.70148436  0.77752430    -0.10900
C685        C  0.12033840  0.72281059  0.80983871    -0.03900
C686        C  0.10648729  0.75921175  0.81102620    -0.19000
H687        H  0.07093983  0.95110934  0.86599471     0.10100
H688        H  0.04558486  0.88894409  0.85269314     0.10200
H689        H  0.12721983  0.87530579  0.76705950     0.09900
H690        H  0.15382054  0.93508044  0.78245607     0.11000
H691        H  0.06805110  0.82306843  0.83387585     0.11100
H692        H  0.08529928  0.82984380  0.75047898     0.13000
H693        H  0.07037263  0.76528468  0.72347793     0.09500
H694        H  0.09358854  0.70111036  0.72166492     0.11600
H695        H  0.13531852  0.71192893  0.83376108     0.08200
H696        H  0.11193870  0.77555152  0.83556014     0.10900
C697        C  0.21828916  0.61915156  0.81582166    -0.03700
C698        C  0.23759594  0.58532081  0.81299673    -0.09500
C699        C  0.27166350  0.58081359  0.83036955    -0.21400
C700        C  0.28753606  0.61016771  0.85041593     0.24400
C701        C  0.26735142  0.64321755  0.85528890    -0.18900
C702        C  0.23292831  0.64757733  0.83827586    -0.08900
C703        C  0.32656221  0.60649825  0.86185190    -0.19200
C704        C  0.35041635  0.63531747  0.85860569    -0.24000
C705        C  0.38923491  0.62820125  0.84890188     0.26400
C706        C  0.40326559  0.64678908  0.81734137    -0.20700
C707        C  0.43443825  0.63329566  0.79975541    -0.10400
C708        C  0.45340306  0.60215869  0.81435583    -0.10900
C709        C  0.44189598  0.58630748  0.84857899    -0.03900
C710        C  0.40966010  0.59894155  0.86553100    -0.19000
H711        H  0.22701292  0.56272410  0.79625034     0.10100
H712        H  0.28663797  0.55504296  0.82627028     0.10200
H713        H  0.27857083  0.66607107  0.87124295     0.09900
H714        H  0.21863703  0.67389595  0.84130255     0.11000
H715        H  0.33737211  0.57818582  0.86408731     0.11100
H716        H  0.33997955  0.66327020  0.85260128     0.13000
H717        H  0.38785485  0.66917401  0.80391496     0.09500
H718        H  0.44184565  0.64518381  0.77293958     0.11600
H719        H  0.45575814  0.56205994  0.86040383     0.08200
H720        H  0.39946260  0.58436637  0.89015751     0.10900
C721        C  0.72425869  0.13792889  0.59702349    -0.03700
C722        C  0.70728089  0.16928378  0.58014960    -0.06300
C723        C  0.66938334  0.16935525  0.57362869    -0.21400
C724        C  0.64792626  0.13779357  0.58283396     0.24400
C725        C  0.66529587  0.10552160  0.59734980    -0.18900
C726        C  0.70303822  0.10567818  0.60452282    -0.08900
C727        C  0.60731582  0.14093488  0.58262878    -0.19200
C728        C  0.58498812  0.11130841  0.57756893    -0.24000
C729        C  0.54564643  0.11107908  0.58834549     0.26400
C730        C  0.52164256  0.08521920  0.57195186    -0.20700
C731        C  0.48688404  0.07820479  0.58723960    -0.10400
C732        C  0.47596825  0.09623403  0.61987143    -0.10900
C733        C  0.49903146  0.12390951  0.63477086    -0.03900
C734        C  0.53336214  0.13154583  0.61901151    -0.19000
H735        H  0.72279042  0.19467124  0.57421547     0.10100
H736        H  0.65656000  0.19462885  0.56274067     0.10200
H737        H  0.64944834  0.08099854  0.60557232     0.09900
H738        H  0.71530097  0.08112161  0.61756127     0.11000
H739        H  0.59562164  0.16798708  0.58916878     0.11100
H740        H  0.59646370  0.08523859  0.56771376     0.13000
H741        H  0.53060585  0.06888307  0.54853559     0.09500
H742        H  0.47000634  0.05630571  0.57544569     0.11600
H743        H  0.49162565  0.13776316  0.66024288     0.08200
H744        H  0.55134777  0.15110031  0.63292616     0.10900
C745        C  0.81338697  0.10496458  0.69424277    -0.03700
C746        C  0.84678712  0.11086529  0.71303132    -0.06300
C747        C  0.85175732  0.09719522  0.74946386    -0.21400
C748        C  0.82333522  0.07782780  0.76800652     0.24400
C749        C  0.79104860  0.06939573  0.74826092    -0.18900
C750        C  0.78615756  0.08280440  0.71177283    -0.08900
C751        C  0.82697168  0.07024178  0.80867991    -0.19200
C752        C  0.79798742  0.07152901  0.83188177    -0.24000
C753        C  0.80284398  0.07881094  0.87204721     0.26400
C754        C  0.78148349  0.10690323  0.88785390    -0.20700
C755        C  0.79068497  0.12108563  0.92260010    -0.10400
C756        C  0.82063049  0.10656605  0.94280031    -0.10900
C757        C  0.83947973  0.07553190  0.92878122    -0.03900
C758        C  0.83092146  0.06200069  0.89337778    -0.19000
H759        H  0.86850435  0.12742603  0.70023379     0.10100
H760        H  0.87707216  0.10371026  0.76394613     0.10200
H761        H  0.76906147  0.05344308  0.76127955     0.09900
H762        H  0.76024371  0.07726457  0.69802309     0.11000
H763        H  0.85450997  0.07044571  0.82043509     0.11100
H764        H  0.77060892  0.07543969  0.82046545     0.13000
H765        H  0.75964961  0.12017620  0.87193183     0.09500
H766        H  0.77606786  0.14526264  0.93245448     0.11600
H767        H  0.86283312  0.06386864  0.94361739     0.08200
H768        H  0.84738140  0.03980815  0.88192746     0.10900
C769        C  0.83815652  0.21021943  0.60754643    -0.03700
C770        C  0.83013900  0.23061985  0.57466571    -0.06300
C771        C  0.84226458  0.26761663  0.57015752    -0.21400
C772        C  0.86196185  0.28502029  0.59869793     0.24400
C773        C  0.87318960  0.26362256  0.62986339    -0.18900
C774        C  0.86164923  0.22632699  0.63409201    -0.08900
C775        C  0.86518386  0.32635341  0.59767247    -0.19200
C776        C  0.85478308  0.34655237  0.62713619    -0.24000
C777        C  0.84087294  0.38518544  0.62202095     0.26400
C778        C  0.80714365  0.39421099  0.63819816    -0.20700
C779        C  0.78845504  0.42648020  0.62671538    -0.10400
C780        C  0.80368613  0.45085396  0.59962961    -0.10900
C781        C  0.83938623  0.44390026  0.58665091    -0.03900
C782        C  0.85770725  0.41107023  0.59748017    -0.19000
H783        H  0.81254480  0.21882531  0.55346245     0.10100
H784        H  0.83354647  0.28360901  0.54577492     0.10200
H785        H  0.88900231  0.27638759  0.65190354     0.09900
H786        H  0.86868392  0.21123465  0.65954711     0.11000
H787        H  0.86736629  0.34005664  0.57046570     0.11100
H788        H  0.84825458  0.33206918  0.65321605     0.13000
H789        H  0.79376235  0.37469438  0.65732389     0.09500
H790        H  0.76102062  0.43101512  0.63722045     0.11600
H791        H  0.85194474  0.46213533  0.56581999     0.08200
H792        H  0.88405893  0.40492097  0.58515155     0.10900
C793        C  0.62776953  0.13258294  0.91576413    -0.03700
C794        C  0.65882187  0.15120578  0.90158070    -0.06300
C795        C  0.69180451  0.15029611  0.92147135    -0.21400
C796        C  0.69354590  0.13163325  0.95632861     0.24400
C797        C  0.66455538  0.10767671  0.96686293    -0.18900
C798        C  0.63163881  0.10824699  0.94665010    -0.08900
C799        C  0.71950280  0.14415210  0.98564307    -0.19200
C800        C  0.72683674  0.18100943  0.98889596    -0.24000
C801        C  0.73790718  0.19834244  0.02425746     0.26400
C802        C  0.72089889  0.23199483  0.03373988    -0.20700
C803        C  0.72929578  0.24943137  0.06709483    -0.10400
C804        C  0.75620368  0.23451485  0.09108904    -0.10900
C805        C  0.77347633  0.20070784  0.08152582    -0.03900
C806        C  0.76406970  0.18247484  0.04851852    -0.19000
H807        H  0.65631393  0.17022178  0.87783497     0.10100
H808        H  0.71426532  0.16796235  0.91192292     0.10200
H809        H  0.66543385  0.09258214  0.99331369     0.09900
H810        H  0.60783356  0.09391548  0.95818216     0.11000
H811        H  0.72534903  0.12518463  0.00891677     0.11100
H812        H  0.71738977  0.20038543  0.96726727     0.13000
H813        H  0.70041868  0.24453597  0.01550854     0.09500
H814        H  0.71500726  0.27499724  0.07371352     0.11600
H815        H  0.79428455  0.18839283  0.09947144     0.08200
H816        H  0.77769221  0.15659651  0.04161298     0.10900
C817        C  0.84331848  0.25422281  0.19397369    -0.03700
C818        C  0.85075769  0.26713007  0.23006757    -0.06300
C819        C  0.88251199  0.25561072  0.24910527    -0.21400
C820        C  0.90803613  0.23249958  0.23169419     0.24400
C821        C  0.90123018  0.22054407  0.19532914    -0.18900
C822        C  0.86892173  0.23070477  0.17694183    -0.08900
C823        C  0.93935281  0.21661084  0.25266684    -0.19200
C824        C  0.97356570  0.21790517  0.23859441    -0.24000
C825        C  0.00240958  0.19015893  0.24872460     0.26400
C826        C  0.02939729  0.18313738  0.22193140    -0.20700
C827        C  0.04694919  0.14847305  0.22156906    -0.10400
C828        C  0.03797899  0.12081157  0.24828549    -0.10900
C829        C  0.01689843  0.13060669  0.27919282    -0.03900
C830        C  0.99912485  0.16528575  0.27952301    -0.19000
H831        H  0.83151125  0.28512741  0.24402934     0.10100
H832        H  0.88703843  0.26450724  0.27744187     0.10200
H833        H  0.92014970  0.20182331  0.18180797     0.09900
H834        H  0.86383328  0.21953447  0.14960488     0.11000
H835        H  0.93290070  0.20028978  0.27755239     0.11100
H836        H  0.97819562  0.23531248  0.21382712     0.13000
H837        H  0.03324907  0.20219904  0.19839939     0.09500
H838        H  0.06313313  0.14136143  0.19743101     0.11600
H839        H  0.00973101  0.10960181  0.30015819     0.08200
H840        H  0.98013522  0.17056311  0.30188804     0.10900
C841        C  0.63825364  0.52956139  0.29479577    -0.03700
C842        C  0.65688356  0.53963932  0.26190230    -0.06300
C843        C  0.65628887  0.51568113  0.23151632    -0.21400
C844        C  0.63733148  0.48126530  0.23406438     0.24400
C845        C  0.61282546  0.47529469  0.26369954    -0.18900
C846        C  0.61314676  0.49956338  0.29397487    -0.08900
C847        C  0.64950268  0.44848499  0.21228884    -0.19200
C848        C  0.68572778  0.44234129  0.20787489    -0.24000
C849        C  0.70197792  0.40608868  0.19719117     0.26400
C850        C  0.68615487  0.38238686  0.17066400    -0.20700
C851        C  0.70412379  0.34927280  0.16064078    -0.10400
C852        C  0.73779862  0.33911839  0.17745697    -0.10900
C853        C  0.75288882  0.36271684  0.20446717    -0.03900
C854        C  0.73542427  0.39588883  0.21382394    -0.19000
H855        H  0.67639008  0.56268000  0.26183173     0.10100
H856        H  0.67433124  0.52168010  0.20819439     0.10200
H857        H  0.59738045  0.44932081  0.26595832     0.09900
H858        H  0.59858906  0.49115025  0.31907625     0.11000
H859        H  0.62989823  0.42631199  0.20637729     0.11100
H860        H  0.70505693  0.46323909  0.21782143     0.13000
H861        H  0.66057739  0.38988377  0.15706967     0.09500
H862        H  0.69180058  0.33180851  0.13959911     0.11600
H863        H  0.77869880  0.35601126  0.21801459     0.08200
H864        H  0.74813419  0.41370568  0.23437606     0.10900
C865        C  0.23156059  0.32018504  0.17587247    -0.03700
C866        C  0.19848517  0.32353142  0.15595731    -0.06300
C867        C  0.19886878  0.33404041  0.11823355    -0.21400
C868        C  0.23217882  0.34237040  0.10023052     0.24400
C869        C  0.26499408  0.34145566  0.12113357    -0.18900
C870        C  0.26465433  0.33004512  0.15849663    -0.08900
C871        C  0.23301556  0.34353807  0.05896278    -0.19200
C872        C  0.26240885  0.35579821  0.03957249    -0.24000
C873        C  0.27475101  0.33643283  0.00573356     0.26400
C874        C  0.29847246  0.35457601  0.98038250    -0.20700
C875        C  0.31669990  0.33403992  0.95313542    -0.10400
C876        C  0.31192719  0.29492029  0.95144632    -0.10900
C877        C  0.28691639  0.27733290  0.97581674    -0.03900
C878        C  0.26877155  0.29770283  0.00266029    -0.19000
H879        H  0.17266229  0.31568039  0.16890472     0.10100
H880        H  0.17336685  0.33375846  0.10261157     0.10200
H881        H  0.29136142  0.34659360  0.10817849     0.09900
H882        H  0.29041040  0.32759580  0.17350066     0.11000
H883        H  0.21215471  0.32711583  0.04482352     0.11100
H884        H  0.28164623  0.37524423  0.05210642     0.13000
H885        H  0.30426357  0.38424487  0.98285252     0.09500
H886        H  0.33626528  0.34837256  0.93515499     0.11600
H887        H  0.28278816  0.24724454  0.97564583     0.08200
H888        H  0.25215288  0.28235639  0.02274095     0.10900
C889        C  0.31139244  0.98253975  0.32141500    -0.03700
C890        C  0.33818988  0.99966465  0.34373187    -0.06300
C891        C  0.34941701  0.03658609  0.33596354    -0.21400
C892        C  0.33496166  0.05636069  0.30514750     0.24400
C893        C  0.31143414  0.03752936  0.28051923    -0.18900
C894        C  0.29943103  0.00120770  0.28893158    -0.08900
C895        C  0.33741975  0.09785718  0.30392767    -0.19200
C896        C  0.33249757  0.11800135  0.27232675    -0.24000
C897        C  0.31778881  0.15664596  0.27217097     0.26400
C898        C  0.32496309  0.18065654  0.24170746    -0.20700
C899        C  0.30571006  0.21427789  0.23722158    -0.10400
C900        C  0.27840148  0.22423473  0.26286119    -0.10900
C901        C  0.27229806  0.20082466  0.29417151    -0.03900
C902        C  0.29176474  0.16740580  0.29878960    -0.19000
H903        H  0.34747538  0.98616256  0.36931365     0.10100
H904        H  0.36725919  0.05062074  0.35553470     0.10200
H905        H  0.29897503  0.05202701  0.25698117     0.09900
H906        H  0.27809981  0.98912688  0.27196664     0.11000
H907        H  0.33802753  0.11208929  0.33044002     0.11100
H908        H  0.33508609  0.10447489  0.24559153     0.13000
H909        H  0.34454492  0.17271497  0.22063403     0.09500
H910        H  0.31126536  0.23173354  0.21287017     0.11600
H911        H  0.25131450  0.20741770  0.31430842     0.08200
H912        H  0.28469031  0.14895602  0.32198361     0.10900
C913        C  0.95101436  0.32716386  0.31962089    -0.03700
C914        C  0.96688754  0.29221114  0.31354340    -0.06300
C915        C  0.99866521  0.28154849  0.33257773    -0.21400
C916        C  0.01569600  0.30641490  0.35709666     0.24400
C917        C  0.99743363  0.33956705  0.36656200    -0.18900
C918        C  0.96506474  0.34977885  0.34801955    -0.08900
C919        C  0.05515064  0.30065189  0.36522260    -0.19200
C920        C  0.07903188  0.32933116  0.36095747    -0.24000
C921        C  0.11565692  0.32347971  0.34437000     0.26400
C922        C  0.12699423  0.34851187  0.31608880    -0.20700
C923        C  0.15701568  0.34016675  0.29381912    -0.10400
C924        C  0.17677279  0.30684989  0.29978328    -0.10900
C925        C  0.16729852  0.28324209  0.33011121    -0.03900
C926        C  0.13681450  0.29140523  0.35217605    -0.19000
H927        H  0.95644389  0.27469638  0.29181942     0.10100
H928        H  0.01208338  0.25575150  0.32495304     0.10200
H929        H  0.00963690  0.35890360  0.38599393     0.09900
H930        H  0.95330291  0.37703534  0.35317528     0.11000
H931        H  0.06522508  0.27212114  0.36343433     0.11100
H932        H  0.06851575  0.35777915  0.35943555     0.13000
H933        H  0.11114282  0.37342977  0.30957635     0.09500
H934        H  0.16393278  0.35926622  0.27107696     0.11600
H935        H  0.18228259  0.25758779  0.33567812     0.08200
H936        H  0.12901226  0.27198129  0.37432591     0.10900
C937        C  0.59445790  0.70814661  0.14403008    -0.03700
C938        C  0.57512490  0.69299860  0.17469475    -0.06300
C939        C  0.56152335  0.65621573  0.17388663    -0.21400
C940        C  0.56626221  0.63426812  0.14221295     0.24400
C941        C  0.58246498  0.65073792  0.11032413    -0.18900
C942        C  0.59640715  0.68724047  0.11126768    -0.08900
C943        C  0.56138782  0.59297692  0.14545423    -0.19200
C944        C  0.55629202  0.57106481  0.11574362    -0.24000
C945        C  0.56794613  0.53122886  0.11536639     0.26400
C946        C  0.55307740  0.50717954  0.08864551    -0.20700
C947        C  0.57021793  0.47312484  0.08080238    -0.10400
C948        C  0.60316580  0.46315684  0.09886198    -0.10900
C949        C  0.61626702  0.48582872  0.12764482    -0.03900
C950        C  0.59875311  0.51931973  0.13604702    -0.19000
H951        H  0.57295399  0.70839991  0.20030698     0.10100
H952        H  0.54928805  0.64410422  0.19883867     0.10200
H953        H  0.58729404  0.63455294  0.08562024     0.09900
H954        H  0.61084010  0.69815739  0.08702449     0.11000
H955        H  0.56677599  0.58001293  0.17253414     0.11100
H956        H  0.54766982  0.58366565  0.08938139     0.13000
H957        H  0.52956821  0.51587520  0.07213501     0.09500
H958        H  0.55957306  0.45645816  0.05824793     0.11600
H959        H  0.64184578  0.47922873  0.14162610     0.08200
H960        H  0.61157904  0.53739059  0.15624188     0.10900
C961        C  0.70375896  0.77945695  0.10668296    -0.03700
C962        C  0.71669785  0.74796335  0.08777703    -0.06300
C963        C  0.75253966  0.74744281  0.07389583    -0.21400
C964        C  0.77568563  0.77867001  0.07777074     0.24400
C965        C  0.76165255  0.81125766  0.09395545    -0.18900
C966        C  0.72610163  0.81156816  0.10835202    -0.08900
C967        C  0.81567273  0.77446162  0.07158719    -0.19200
C968        C  0.83791496  0.80393811  0.06459069    -0.24000
C969        C  0.87746048  0.80410725  0.07461690     0.26400
C970        C  0.90043124  0.83197933  0.05915023    -0.20700
C971        C  0.93492397  0.83929111  0.07480904    -0.10400
C972        C  0.94654457  0.81946733  0.10688441    -0.10900
C973        C  0.92452614  0.79006007  0.12086088    -0.03900
C974        C  0.89059143  0.78206953  0.10466677    -0.19000
H975        H  0.70017452  0.72271739  0.08610974     0.10100
H976        H  0.76284752  0.72192765  0.06187730     0.10200
H977        H  0.77893871  0.83556663  0.09827290     0.09900
H978        H  0.71686907  0.83626103  0.12267770     0.11000
H979        H  0.82744921  0.74701244  0.07725822     0.11100
H980        H  0.82602487  0.83047094  0.05553506     0.13000
H981        H  0.89072912  0.84968332  0.03637432     0.09500
H982        H  0.95095200  0.86260985  0.06380188     0.11600
H983        H  0.93225343  0.77513812  0.14614904     0.08200
H984        H  0.87339749  0.76105992  0.11811295     0.10900
C985        C  0.63728076  0.81477075  0.21877159    -0.03700
C986        C  0.66807604  0.83596935  0.22977121    -0.06300
C987        C  0.66944825  0.85212616  0.26494672    -0.21400
C988        C  0.63978520  0.84826316  0.28948818     0.24400
C989        C  0.60824740  0.82864919  0.27784194    -0.18900
C990        C  0.60709202  0.81196036  0.24292841    -0.08900
C991        C  0.64460695  0.85868278  0.32898063    -0.19200
C992        C  0.61601755  0.86686629  0.35094347    -0.24000
C993        C  0.61574810  0.85843137  0.39157756     0.26400
C994        C  0.58730642  0.87289379  0.41332656    -0.20700
C995        C  0.57836302  0.85606318  0.44768483    -0.10400
C996        C  0.59737531  0.82405973  0.46029319    -0.10900
C997        C  0.62838485  0.81249164  0.44066712    -0.03900
C998        C  0.63769987  0.82953465  0.40672923    -0.19000
H999        H  0.69193523  0.83860057  0.21196011     0.10100
H1000       H  0.69424157  0.86653107  0.27353330     0.10200
H1001       H  0.58531609  0.82408216  0.29653313     0.09900
H1002       H  0.58304403  0.79576740  0.23541151     0.11000
H1003       H  0.67168502  0.85475286  0.34114430     0.11100
H1004       H  0.58989316  0.87419329  0.33810383     0.13000
H1005       H  0.56995122  0.89505317  0.40226780     0.09500
H1006       H  0.55417290  0.86553062  0.46219649     0.11600
H1007       H  0.64330494  0.78795262  0.44989694     0.08200
H1008       H  0.65955403  0.81710524  0.39084892     0.10900
C1009       C  0.17916129  0.82472704  0.26003619    -0.03700
C1010       C  0.21027841  0.83656302  0.28019821    -0.06300
C1011       C  0.22674848  0.87135830  0.27217243    -0.21400
C1012       C  0.21161771  0.89508192  0.24464869     0.24400
C1013       C  0.18052730  0.88346772  0.22489626    -0.18900
C1014       C  0.16507123  0.84830795  0.23177216    -0.08900
C1015       C  0.22825690  0.93134300  0.23387332    -0.19200
C1016       C  0.26368202  0.93405392  0.22360492    -0.24000
C1017       C  0.27499186  0.96229167  0.19495210     0.26400
C1018       C  0.25709612  0.99707579  0.19132665    -0.20700
C1019       C  0.25632199  0.01585906  0.15689155    -0.10400
C1020       C  0.27430380  0.00068711  0.12624407    -0.10900
C1021       C  0.29724598  0.96960158  0.13158304    -0.03900
C1022       C  0.29773380  0.95053756  0.16595534    -0.19000
H1023       H  0.22187279  0.81900024  0.30211495     0.10100
H1024       H  0.25088983  0.87989215  0.28758996     0.10200
H1025       H  0.16878716  0.90128008  0.20321751     0.09900
H1026       H  0.14157346  0.83996351  0.21528161     0.11000
H1027       H  0.20911398  0.95309425  0.22524974     0.11100
H1028       H  0.28173736  0.91036679  0.22896970     0.13000
H1029       H  0.24046234  0.00765681  0.21373098     0.09500
H1030       H  0.23831403  0.03973349  0.15314572     0.11600
H1031       H  0.31092752  0.95725921  0.10804217     0.08200
H1032       H  0.31213339  0.92408141  0.16823349     0.10900
C1033       C  0.07930067  0.73491588  0.23648104    -0.03700
C1034       C  0.07004851  0.75284546  0.20240521    -0.06300
C1035       C  0.03659871  0.74486911  0.18467240    -0.21400
C1036       C  0.01187204  0.71921650  0.20112852     0.24400
C1037       C  0.02147729  0.70098553  0.23464628    -0.18900
C1038       C  0.05487996  0.70839903  0.25192743    -0.08900
C1039       C  0.97520087  0.71103525  0.18553510    -0.19200
C1040       C  0.96760968  0.70850016  0.14891265    -0.24000
C1041       C  0.93440221  0.68734869  0.13729932     0.26400
C1042       C  0.93875686  0.65819984  0.11203099    -0.20700
C1043       C  0.91592118  0.62657926  0.11452196    -0.10400
C1044       C  0.88916174  0.62412652  0.14254685    -0.10900
C1045       C  0.87981720  0.65659653  0.16173181    -0.03900
C1046       C  0.90210530  0.68845221  0.15869883    -0.19000
H1047       H  0.08830026  0.77349813  0.18983140     0.10100
H1048       H  0.02961629  0.75956255  0.15897536     0.10200
H1049       H  0.00286299  0.68095667  0.24772235     0.09900
H1050       H  0.06094155  0.69414731  0.27810856     0.11000
H1051       H  0.95496307  0.70093492  0.20557818     0.11100
H1052       H  0.98885191  0.71467006  0.12848864     0.13000
H1053       H  0.96297155  0.65713982  0.09462412     0.09500
H1054       H  0.92348804  0.60181446  0.09933348     0.11600
H1055       H  0.85909968  0.65537655  0.18333713     0.08200
H1056       H  0.89724479  0.71148878  0.17728464     0.10900
C1057       C  0.16054406  0.71666882  0.34499276    -0.03700
C1058       C  0.18183819  0.73443600  0.37217735    -0.06300
C1059       C  0.19174489  0.71541164  0.40483475    -0.21400
C1060       C  0.18107041  0.67789737  0.41094645     0.24400
C1061       C  0.15965902  0.65997917  0.38398590    -0.18900
C1062       C  0.14888491  0.67942827  0.35150336    -0.08900
C1063       C  0.19628568  0.65650221  0.44311015    -0.19200
C1064       C  0.20126549  0.67292146  0.47623756    -0.24000
C1065       C  0.22957643  0.66165013  0.50407252     0.26400
C1066       C  0.23598322  0.68618306  0.53357794    -0.20700
C1067       C  0.27046280  0.68764665  0.55053565    -0.10400
C1068       C  0.29858510  0.66407529  0.53863544    -0.10900
C1069       C  0.29004459  0.63480844  0.51452518    -0.03900
C1070       C  0.25565687  0.63357327  0.49713162    -0.19000
H1071       H  0.19134948  0.76299972  0.36809112     0.10100
H1072       H  0.20924059  0.72964116  0.42456990     0.10200
H1073       H  0.15158973  0.63091001  0.38794294     0.09900
H1074       H  0.13239228  0.66500810  0.33104957     0.11000
H1075       H  0.20649109  0.62859714  0.43798226     0.11100
H1076       H  0.18786591  0.69968430  0.48056898     0.13000
H1077       H  0.21615953  0.70764597  0.54007090     0.09500
H1078       H  0.27662096  0.71058993  0.56895965     0.11600
H1079       H  0.31151495  0.61647706  0.50484710     0.08200
H1080       H  0.25162662  0.61336834  0.47543701     0.10900
C1081       C  0.67773477  0.68491259  0.57582862    -0.03700
C1082       C  0.71485087  0.68117425  0.56620369    -0.06300
C1083       C  0.72979413  0.70276687  0.53719746    -0.21400
C1084       C  0.70777833  0.72771579  0.51655435     0.24400
C1085       C  0.67046778  0.73106176  0.52541622    -0.18900
C1086       C  0.65560389  0.71005771  0.55512732    -0.08900
C1087       C  0.72512494  0.75026570  0.48653956    -0.19200
C1088       C  0.71124862  0.75268216  0.45180933    -0.24000
C1089       C  0.73580006  0.76344317  0.42058366     0.26400
C1090       C  0.73984983  0.73813580  0.39149783    -0.20700
C1091       C  0.77299951  0.73689949  0.37205050    -0.10400
C1092       C  0.80182676  0.76132264  0.38136689    -0.10900
C1093       C  0.79453640  0.79165500  0.40446754    -0.03900
C1094       C  0.76166319  0.79253072  0.42441345    -0.19000
H1095       H  0.73260450  0.66215172  0.58161476     0.10100
H1096       H  0.75865077  0.69979355  0.53063508     0.10200
H1097       H  0.65316929  0.75046439  0.50999788     0.09900
H1098       H  0.62684545  0.71345646  0.56184465     0.11000
H1099       H  0.75318373  0.75951851  0.49149427     0.11100
H1100       H  0.68542149  0.73870659  0.44564071     0.13000
H1101       H  0.71997468  0.71580876  0.38773422     0.09500
H1102       H  0.77815732  0.71320030  0.35436743     0.11600
H1103       H  0.81643578  0.81072309  0.41212414     0.08200
H1104       H  0.75861486  0.81290975  0.44618623     0.10900
C1105       C  0.68455784  0.57765139  0.66436763    -0.03700
C1106       C  0.71645912  0.56376109  0.64737762    -0.06300
C1107       C  0.73256826  0.53036002  0.66043385    -0.21400
C1108       C  0.71657593  0.51017135  0.69020323     0.24400
C1109       C  0.68486725  0.52403287  0.70700765    -0.18900
C1110       C  0.66924294  0.55748623  0.69454826    -0.08900
C1111       C  0.73108571  0.47411480  0.70449655    -0.19200
C1112       C  0.76703778  0.46604495  0.70796316    -0.24000
C1113       C  0.77785324  0.43547252  0.73417502     0.26400
C1114       C  0.80060922  0.44447379  0.76431709    -0.20700
C1115       C  0.79687427  0.42480621  0.79819569    -0.10400
C1116       C  0.77051744  0.39612369  0.80175153    -0.10900
C1117       C  0.75318334  0.38272019  0.76972243    -0.03900
C1118       C  0.75731912  0.40198098  0.73578669    -0.19000
H1119       H  0.72883135  0.57852082  0.62392377     0.10100
H1120       H  0.75690346  0.52000485  0.64687074     0.10200
H1121       H  0.67218788  0.50896736  0.73014294     0.09900
H1122       H  0.64482694  0.56725317  0.70844875     0.11000
H1123       H  0.71115169  0.45566167  0.71807526     0.11100
H1124       H  0.78762850  0.48611026  0.69838099     0.13000
H1125       H  0.81697487  0.46992655  0.76350529     0.09500
H1126       H  0.81032487  0.43567419  0.82272943     0.11600
H1127       H  0.73267591  0.36068905  0.77197985     0.08200
H1128       H  0.74025804  0.39400005  0.71243682     0.10900
C1129       C  0.58333962  0.66770010  0.67263585    -0.03700
C1130       C  0.56398994  0.69876509  0.65827772    -0.06300
C1131       C  0.53079362  0.70932340  0.67404544    -0.21400
C1132       C  0.51706720  0.69019969  0.70548989     0.24400
C1133       C  0.53645333  0.65954365  0.72046243    -0.18900
C1134       C  0.56917314  0.64813246  0.70392183    -0.08900
C1135       C  0.48271772  0.70358703  0.72210167    -0.19200
C1136       C  0.47825580  0.70698804  0.75907715    -0.24000
C1137       C  0.44810351  0.73019938  0.77350930     0.26400
C1138       C  0.41367668  0.73097540  0.75572651    -0.20700
C1139       C  0.39134087  0.76242038  0.75871497    -0.10400
C1140       C  0.40338156  0.79312695  0.77935309    -0.10900
C1141       C  0.43399416  0.78895571  0.80286474    -0.03900
C1142       C  0.45641687  0.75744715  0.79991224    -0.19000
H1143       H  0.57411800  0.71460157  0.63438037     0.10100
H1144       H  0.51618426  0.73310919  0.66216708     0.10200
H1145       H  0.52613426  0.64424835  0.74459328     0.09900
H1146       H  0.58331419  0.62401233  0.71565233     0.11000
H1147       H  0.46288985  0.71637540  0.70314322     0.11100
H1148       H  0.50002077  0.69821822  0.77803230     0.13000
H1149       H  0.40607210  0.70943883  0.73622442     0.09500
H1150       H  0.36780454  0.76515205  0.74035047     0.11600
H1151       H  0.44387173  0.81250438  0.81877181     0.08200
H1152       H  0.48256714  0.75700775  0.81437351     0.10900
loop_ 
_geom_bond_atom_site_label_1 
_geom_bond_atom_site_label_2 
_geom_bond_distance 
_geom_bond_site_symmetry_2 
_ccdc_geom_bond_type 
C1            N2   1.358       .  A
C1            N6   1.361       .  A
C1         C1081   1.478       .  S
N2            C3   1.358       .  A
C3            N4   1.355       .  A
C3         C1129   1.481       .  S
N4            C5   1.358       .  A
C5            N6   1.358       .  A
C5         C1105   1.482       .  S
C7            N8   1.357       .  A
C7           N12   1.360       .  A
C7         C1033   1.480       .  S
N8            C9   1.359       .  A
C9           N10   1.357       .  A
C9         C1009   1.480       .  S
N10          C11   1.358       .  A
C11          N12   1.357       .  A
C11        C1057   1.479       .  S
C13          N14   1.362       .  A
C13          N18   1.359       .  A
C13         C937   1.484       .  S
N14          C15   1.362       .  A
C15          N16   1.357       .  A
C15         C985   1.484       .  S
N16          C17   1.357       .  A
C17          N18   1.356       .  A
C17         C961   1.479       .  S
C19          N20   1.358       .  A
C19          N24   1.360       .  A
C19         C924   1.479       .  S
N20          C21   1.353       .  A
C21          N22   1.357       .  A
C21         C865   1.468       .  S
N22          C23   1.359       .  A
C23          N24   1.361       .  A
C23         C900   1.484       .  S
C25          N26   1.359       .  A
C25          N30   1.361       .  A
C25         C852   1.487       .  S
N26          C27   1.362       .  A
C27          N28   1.357       .  A
C27         C804   1.483       .  S
N28          C29   1.358       .  A
C29          N30   1.358       .  A
C29         C817   1.482       .  S
C31          N32   1.359       .  A
C31          N36   1.360       .  A
C31         C769   1.481       .  S
N32          C33   1.357       .  A
C33          N34   1.358       .  A
C33         C721   1.481       .  S
N34          C35   1.359       .  A
C35          N36   1.360       .  A
C35         C745   1.484       .  S
C37          N38   1.359       .  A
C37          N42   1.359       .  A
C37         C649   1.483       .  S
N38          C39   1.359       .  A
C39          N40   1.358       .  A
C39         C697   1.484       .  S
N40          C41   1.360       .  A
C41          N42   1.359       .  A
C41         C684   1.482       .  S
O43         Mg45   2.104       .  S
O43         Mg51   2.128   1_545  S
O43          C78   1.239       .  S
C44          O57   1.244   1_556  S
C44          O81   1.280   1_565  A
C44          H83   1.081       .  S
Mg45         O74   2.090       .  S
Mg45         O89   2.233   1_545  S
Mg45         O85   2.199   1_455  S
Mg45         O56   2.332       .  S
O46         Mg88   2.129   1_554  S
O46         Mg71   2.105       .  S
O46          C67   1.239       .  S
O47          C78   1.276       .  A
O47         Mg71   2.330       .  S
C48         C369   1.487       .  S
C48          O50   1.285       .  A
C48          O62   1.265       .  A
O49          C77   1.278   1_455  A
O49         Mg51   2.328       .  S
O50         Mg82   2.372       .  S
Mg51         O57   2.188       .  S
Mg51         O65   2.384       .  S
Mg51         O53   2.472       .  S
C52          C93   1.499   1_556  S
C52          O90   1.246       .  A
C52          O58   1.286       .  A
O53          C60   1.289       .  A
H54          C67   1.081       .  S
C55          O69   1.242   1_655  S
C55          O70   1.277   1_556  A
C55          H80   1.081       .  S
O56          C79   1.276       .  A
O57         Mg71   2.092   1_565  S
O58         Mg88   2.471       .  S
C59         C437   1.493       .  S
C59          O72   1.287       .  A
C59          O64   1.263       .  A
C60         C105   1.493       .  S
C60          O87   1.249       .  A
Mg61         O68   2.081       .  S
Mg61         O69   2.092   1_554  S
Mg61         O62   2.251   1_455  S
Mg61         O63   2.341       .  S
Mg61         O90   2.187   1_554  S
O63          C67   1.276       .  A
O64         Mg71   2.240   1_556  S
O65          C84   1.287       .  A
O66          C86   1.278       .  A
O66         Mg82   2.430       .  S
O68         Mg82   2.123   1_455  S
O68          C79   1.240       .  S
O69         Mg88   2.196       .  S
O70         Mg82   2.318       .  S
Mg71         O87   2.194   1_545  S
O72         Mg88   2.389       .  S
H73          C78   1.081       .  S
O74         Mg82   2.210   1_455  S
O74          C77   1.242   1_445  S
H75          C77   1.081       .  S
H76          C79   1.081       .  S
O81         Mg88   2.329       .  S
C84         C237   1.486       .  S
C84          O89   1.263       .  A
O85          C86   1.246       .  A
C86         C101   1.487   1_655  S
C91          N92   1.364       .  A
C91          N96   1.369       .  A
C91         C625   1.462       .  S
N92          C93   1.348       .  A
C93          N94   1.368       .  A
N94          C95   1.373       .  A
C95          N96   1.363       .  A
C95         C350   1.500   1_455  S
C97          N98   1.370       .  A
C97         N102   1.364       .  A
C97         C828   1.462       .  S
N98          C99   1.363       .  A
C99         N100   1.366       .  A
C99         C192   1.487   1_545  S
N100        C101   1.359       .  A
C101        N102   1.348       .  A
C103        N104   1.364   1_545  A
C103        N108   1.368       .  A
C103       C1020   1.461       .  S
N104        C105   1.349       .  A
C105        N106   1.368   1_565  A
N106        C107   1.369       .  A
C107        N108   1.362       .  A
C107        C378   1.499   1_554  S
O109       Mg111   2.103       .  S
O109       Mg117   2.126       .  S
O109        C144   1.240       .  S
C110        O123   1.241       .  S
C110        O147   1.276       .  A
C110        H149   1.081       .  S
Mg111       O140   2.079       .  S
Mg111       O155   2.246       .  S
Mg111       O151   2.190       .  S
Mg111       O122   2.347       .  S
O112       Mg154   2.130       .  S
O112       Mg137   2.087       .  S
O112        C133   1.240       .  S
O113        C144   1.277       .  A
O113       Mg137   2.341       .  S
C114        C227   1.494       .  S
C114        O116   1.290       .  A
C114        O128   1.266   1_455  A
O115        C143   1.279       .  A
O115       Mg117   2.330       .  S
O116       Mg148   2.394   1_455  S
Mg117       O123   2.185       .  S
Mg117       O131   2.369       .  S
Mg117       O119   2.458       .  S
C118        C171   1.485       .  S
C118        O156   1.245       .  A
C118        O124   1.279       .  A
O119        C126   1.284       .  A
H120        C133   1.081       .  S
C121        O135   1.241       .  S
C121        O136   1.277       .  A
C121        H146   1.081       .  S
O122        C145   1.278       .  A
O123       Mg137   2.084       .  S
O124       Mg154   2.427       .  S
C125        C503   1.491       .  S
C125        O138   1.286       .  A
C125        O130   1.265       .  A
C126        C159   1.490       .  S
C126        O153   1.245       .  A
Mg127       O134   2.103       .  S
Mg127       O135   2.092       .  S
Mg127       O128   2.256       .  S
Mg127       O129   2.336       .  S
Mg127       O156   2.199       .  S
O129        C133   1.276       .  A
O130       Mg137   2.249       .  S
O131        C150   1.286       .  A
O132        C152   1.283       .  A
O132       Mg148   2.473       .  S
O134       Mg148   2.122       .  S
O134        C145   1.240       .  S
O135       Mg154   2.217       .  S
O136       Mg148   2.322       .  S
Mg137       O153   2.180       .  S
O138       Mg154   2.379       .  S
H139        C144   1.081       .  S
O140       Mg148   2.213       .  S
O140        C143   1.242       .  S
H141        C143   1.081       .  S
H142        C145   1.081       .  S
O147       Mg154   2.312       .  S
C150        C365   1.487       .  S
C150        O155   1.264       .  A
O151        C152   1.242       .  A
C152        C165   1.495       .  S
C157        N158   1.363       .  A
C157        N162   1.373       .  A
C157        C841   1.468       .  S
N158        C159   1.346       .  A
C159        N160   1.365       .  A
N160        C161   1.367       .  A
C161        N162   1.367       .  A
C161        C482   1.497       .  S
C163        N164   1.365       .  A
C163        N168   1.370       .  A
C163       C1044   1.465       .  S
N164        C165   1.349       .  A
C165        N166   1.367       .  A
N166        C167   1.368       .  A
C167        N168   1.363       .  A
C167        C316   1.496       .  S
C169        N170   1.363       .  A
C169        N174   1.369       .  A
C169       C1092   1.463       .  S
N170        C171   1.347       .  A
C171        N172   1.361       .  A
N172        C173   1.365       .  A
C173        N174   1.364       .  A
C173        C184   1.487       .  S
O175       Mg177   2.128       .  S
O175       Mg183   2.158       .  S
O175        C210   1.242       .  S
C176        O189   1.241       .  S
C176        O213   1.276       .  A
C176        H215   1.074       .  S
Mg177       O206   2.113       .  S
Mg177       O221   2.231       .  S
Mg177       O217   2.193       .  S
Mg177       O188   2.295       .  S
O178       Mg220   2.214   1_655  S
O178       Mg203   2.169   1_655  S
O178        C199   1.268       .  A
O179        C210   1.274       .  A
O179       Mg203   2.292       .  S
C180        C225   1.489       .  S
C180        O182   1.289       .  A
C180        O194   1.260       .  A
O181        C209   1.273       .  A
O181       Mg183   2.310       .  S
O182       Mg214   2.374       .  S
Mg183       O189   2.136       .  S
Mg183       O197   2.362       .  S
Mg183       O185   2.464       .  S
C184        O222   1.265       .  A
C184        O190   1.291       .  A
O185        C192   1.293       .  A
H186        C199   1.081       .  S
C187        O201   1.242       .  S
C187        O202   1.274       .  A
C187        H212   1.081       .  S
O188        C211   1.274       .  A
O189       Mg203   2.113       .  S
O190       Mg220   2.440   1_655  S
C191        C239   1.481       .  S
C191        O204   1.284       .  A
C191        O196   1.266   1_655  A
C192        O219   1.260       .  A
Mg193       O200   2.135       .  S
Mg193       O201   2.132       .  S
Mg193       O194   2.208       .  S
Mg193       O195   2.292   1_455  S
Mg193       O222   2.200   1_455  S
O195        C199   1.271       .  A
O196       Mg203   2.248       .  S
O197        C216   1.286       .  A
O198        C218   1.300       .  A
O198       Mg214   2.491       .  S
O200       Mg214   2.158       .  S
O200        C211   1.241       .  S
O201       Mg220   2.114       .  S
O202       Mg214   2.311       .  S
Mg203       O219   2.157       .  S
O204       Mg220   2.338   1_655  S
H205        C210   1.081       .  S
O206       Mg214   2.125       .  S
O206        C209   1.240       .  S
H207        C209   1.079       .  S
H208        C211   1.081       .  S
O213       Mg220   2.317       .  S
C216        C233   1.486       .  S
C216        O221   1.263       .  A
O217        C218   1.263       .  A
C218        C561   1.499       .  S
C223        N224   1.363       .  A
C223        N228   1.368       .  A
C223        C660   1.481       .  S
N224        C225   1.348       .  A
C225        N226   1.371       .  A
N226        C227   1.367       .  A
C227        N228   1.361       .  A
C229        N230   1.367       .  A
C229        N234   1.363       .  A
C229        C889   1.475       .  S
N230        C231   1.361       .  A
C231        N232   1.365       .  A
C231        C510   1.491       .  S
N232        C233   1.370       .  A
C233        N234   1.351       .  A
C235        N236   1.367   1_655  A
C235        N240   1.362       .  A
C235        C972   1.479       .  S
N236        C237   1.362       .  A
C237        N238   1.363       .  A
N238        C239   1.367   1_455  A
C239        N240   1.351       .  A
O241       Mg243   2.099       .  S
O241       Mg249   2.126       .  S
O241        C276   1.240       .  S
C242        O255   1.243       .  S
C242        O279   1.278       .  A
C242        H281   1.081       .  S
Mg243       O272   2.082       .  S
Mg243       O287   2.256       .  S
Mg243       O283   2.189       .  S
Mg243       O254   2.340       .  S
O244       Mg286   2.135       .  S
O244       Mg269   2.104       .  S
O244        C265   1.239       .  S
O245        C276   1.276       .  A
O245       Mg269   2.329       .  S
C246        C497   1.489       .  S
C246        O248   1.286       .  A
C246        O260   1.265       .  A
O247        C275   1.278       .  A
O247       Mg249   2.324       .  S
O248       Mg280   2.374       .  S
Mg249       O255   2.191       .  S
Mg249       O263   2.389   1_556  S
Mg249       O251   2.471       .  S
C250        C291   1.487       .  S
C250        O288   1.247       .  A
C250        O256   1.282       .  A
O251        C258   1.288       .  A
H252        C265   1.081       .  S
C253        O267   1.242       .  S
C253        O268   1.277       .  A
C253        H278   1.081       .  S
O254        C277   1.278       .  A
O255       Mg269   2.091       .  S
O256       Mg286   2.441       .  S
C257        C429   1.486       .  S
C257        O270   1.283       .  A
C257        O262   1.265       .  A
C258        C297   1.493       .  S
C258        O285   1.250       .  A
Mg259       O266   2.096       .  S
Mg259       O267   2.092       .  S
Mg259       O260   2.251       .  S
Mg259       O261   2.336       .  S
Mg259       O288   2.191       .  S
O261        C265   1.276       .  A
O262       Mg269   2.243       .  S
O263        C282   1.288       .  A
O264        C284   1.280       .  A
O264       Mg280   2.454       .  S
O266       Mg280   2.125       .  S
O266        C277   1.241       .  S
O267       Mg286   2.193       .  S
O268       Mg280   2.321       .  S
Mg269       O285   2.194       .  S
O270       Mg286   2.363       .  S
H271        C276   1.081       .  S
O272       Mg280   2.205       .  S
O272        C275   1.242       .  S
H273        C275   1.081       .  S
H274        C277   1.081       .  S
O279       Mg286   2.321       .  S
C282        C359   1.494       .  S
C282        O287   1.266   1_554  A
O283        C284   1.246       .  A
C284        C305   1.492       .  S
C289        N290   1.363       .  A
C289        N294   1.373       .  A
C289        C612   1.468       .  S
N290        C291   1.347       .  A
C291        N292   1.362       .  A
N292        C293   1.366       .  A
C293        N294   1.367       .  A
C293        C456   1.496       .  S
C295        N296   1.366       .  A
C295        N300   1.370       .  A
C295        C793   1.465       .  S
N296        C297   1.350       .  A
C297        N298   1.365       .  A
N298        C299   1.366       .  A
C299        N300   1.363       .  A
C299        C414   1.498       .  S
C301        N302   1.369       .  A
C301        N306   1.367       .  A
C301       C1116   1.464       .  S
N302        C303   1.362       .  A
C303        N304   1.364       .  A
C303        C324   1.487       .  S
N304        C305   1.362       .  A
C305        N306   1.351       .  A
O307       Mg309   2.125   1_556  S
O307       Mg315   2.149   1_556  S
O307        C342   1.242       .  S
C308        O321   1.240       .  S
C308        O345   1.274       .  A
C308        H347   1.076       .  S
Mg309       O338   2.113       .  S
Mg309       O353   2.242       .  S
Mg309       O349   2.187       .  S
Mg309       O320   2.293       .  S
O310       Mg352   2.156       .  S
O310       Mg335   2.116       .  S
O310        C331   1.242       .  S
O311        C342   1.275       .  A
O311       Mg335   2.296   1_556  S
C312        C363   1.493       .  S
C312        O314   1.289       .  A
C312        O326   1.261       .  A
O313        C341   1.274       .  A
O313       Mg315   2.311       .  S
O314       Mg346   2.386       .  S
Mg315       O321   2.129       .  S
Mg315       O329   2.347   1_554  S
Mg315       O317   2.452   1_554  S
C316        O354   1.264       .  A
C316        O322   1.296       .  A
O317        C324   1.292       .  A
H318        C331   1.081       .  S
C319        O333   1.241       .  S
C319        O334   1.274       .  A
C319        H344   1.079       .  S
O320        C343   1.274       .  A
O321       Mg335   2.108       .  S
O322       Mg352   2.472       .  S
C323        C357   1.489       .  S
C323        O336   1.287       .  A
C323        O328   1.262       .  A
C324        O351   1.261       .  A
Mg325       O332   2.133       .  S
Mg325       O333   2.119       .  S
Mg325       O326   2.208       .  S
Mg325       O327   2.286       .  S
Mg325       O354   2.202       .  S
O327        C331   1.274       .  A
O328       Mg335   2.229       .  S
O329        C348   1.284       .  A
O330        C350   1.300       .  A
O330       Mg346   2.497       .  S
O332       Mg346   2.163       .  S
O332        C343   1.241       .  S
O333       Mg352   2.119       .  S
O334       Mg346   2.311       .  S
Mg335       O351   2.183   1_554  S
O336       Mg352   2.367       .  S
H337        C342   1.081       .  S
O338       Mg346   2.131       .  S
O338        C341   1.240       .  S
H339        C341   1.076       .  S
H340        C343   1.081       .  S
O345       Mg352   2.311       .  S
C348        C371   1.484       .  S
C348        O353   1.264   1_556  A
O349        C350   1.262       .  A
C355        N356   1.364       .  A
C355        N360   1.369       .  A
C355        C948   1.482       .  S
N356        C357   1.351       .  A
C357        N358   1.370       .  A
N358        C359   1.365       .  A
C359        N360   1.363       .  A
C361        N362   1.366       .  A
C361        N366   1.363       .  A
C361        C913   1.470       .  S
N362        C363   1.354       .  A
C363        N364   1.373       .  A
N364        C365   1.366       .  A
C365        N366   1.356       .  A
C367        N368   1.367       .  A
C367        N372   1.362       .  A
C367        C756   1.478       .  S
N368        C369   1.362   1_556  A
C369        N370   1.364       .  A
N370        C371   1.368   1_554  A
C371        N372   1.351       .  A
O373       Mg375   2.092       .  S
O373       Mg381   2.123       .  S
O373        C408   1.236       .  S
C374        O387   1.243   1_565  S
C374        O411   1.280       .  A
C374        H413   1.081       .  S
Mg375       O404   2.104       .  S
Mg375       O419   2.253       .  S
Mg375       O415   2.177       .  S
Mg375       O386   2.318       .  S
O376       Mg418   2.137   1_545  S
O376       Mg401   2.104       .  S
O376        C397   1.238       .  S
O377        C408   1.274       .  A
O377       Mg401   2.319       .  S
C378        O380   1.286       .  A
C378        O392   1.264       .  A
O379        C407   1.278       .  A
O379       Mg381   2.327       .  S
O380       Mg412   2.392       .  S
Mg381       O387   2.204       .  S
Mg381       O395   2.392       .  S
Mg381       O383   2.457       .  S
C382        C435   1.485       .  S
C382        O420   1.250       .  A
C382        O388   1.289       .  A
O383        C390   1.286       .  A
H384        C397   1.081       .  S
C385        O399   1.243   1_565  S
C385        O400   1.279   1_565  A
C385        H410   1.081       .  S
O386        C409   1.273       .  A
O387       Mg401   2.103       .  S
O388       Mg418   2.469       .  S
C389        C569   1.495       .  S
C389        O402   1.285       .  A
C389        O394   1.264       .  A
C390        C423   1.485       .  S
C390        O417   1.250       .  A
Mg391       O398   2.086       .  S
Mg391       O399   2.098       .  S
Mg391       O392   2.247       .  S
Mg391       O393   2.322       .  S
Mg391       O420   2.161   1_545  S
O393        C397   1.273       .  A
O394       Mg401   2.238   1_565  S
O395        C414   1.287       .  A
O396        C416   1.284       .  A
O396       Mg412   2.439       .  S
O398       Mg412   2.124       .  S
O398        C409   1.237       .  S
O399       Mg418   2.180   1_545  S
O400       Mg412   2.321       .  S
Mg401       O417   2.172       .  S
O402       Mg418   2.386       .  S
H403        C408   1.077       .  S
O404       Mg412   2.206       .  S
O404        C407   1.242       .  S
H405        C407   1.081       .  S
H406        C409   1.076       .  S
O411       Mg418   2.333       .  S
C414        O419   1.267       .  A
O415        C416   1.250       .  A
C416        C431   1.483       .  S
C421        N422   1.364       .  A
C421        N426   1.371       .  A
C421        C732   1.481       .  S
N422        C423   1.351       .  A
C423        N424   1.368       .  A
N424        C425   1.364       .  A
C425        N426   1.364       .  A
C425        C521   1.495       .  S
C427        N428   1.368       .  A
C427        N432   1.364       .  A
C427        C876   1.479       .  S
N428        C429   1.361       .  A
C429        N430   1.363       .  A
N430        C431   1.364       .  A
C431        N432   1.348       .  A
C433        N434   1.363       .  A
C433        N438   1.369   1_565  A
C433        C673   1.478       .  S
N434        C435   1.349       .  A
C435        N436   1.369   1_565  A
N436        C437   1.364       .  A
C437        N438   1.362       .  A
O439       Mg441   2.138       .  S
O439       Mg447   2.151       .  S
O439        C474   1.242       .  S
C440        O453   1.240       .  S
C440        O477   1.274       .  A
C440        H479   1.080       .  S
Mg441       O470   2.118       .  S
Mg441       O485   2.244       .  S
Mg441       O481   2.204       .  S
Mg441       O452   2.289       .  S
O442       Mg484   2.154       .  S
O442       Mg467   2.123       .  S
O442        C463   1.243       .  S
O443        C474   1.275       .  A
O443       Mg467   2.299       .  S
C444        C491   1.492       .  S
C444        O446   1.288       .  A
C444        O458   1.263       .  A
O445        C473   1.275       .  A
O445       Mg447   2.319       .  S
O446       Mg478   2.372       .  S
Mg447       O453   2.130       .  S
Mg447       O461   2.353       .  S
Mg447       O449   2.479       .  S
C448        C555   1.492       .  S
C448        O486   1.261       .  A
C448        O454   1.293       .  A
O449        C456   1.296       .  A
H450        C463   1.081       .  S
C451        O465   1.238       .  S
C451        O466   1.273       .  A
C451        H476   1.075       .  S
O452        C475   1.273       .  A
O453       Mg467   2.111       .  S
O454       Mg484   2.465       .  S
C455        C495   1.487       .  S
C455        O468   1.285       .  A
C455        O460   1.266       .  A
C456        O483   1.263       .  A
Mg457       O464   2.120       .  S
Mg457       O465   2.108       .  S
Mg457       O458   2.232       .  S
Mg457       O459   2.292       .  S
Mg457       O486   2.181       .  S
O459        C463   1.275       .  A
O460       Mg467   2.251       .  S
O461        C480   1.286       .  A
O462        C482   1.297       .  A
O462       Mg478   2.479       .  S
O464       Mg478   2.154       .  S
O464        C475   1.241       .  S
O465       Mg484   2.126       .  S
O466       Mg478   2.306       .  S
Mg467       O483   2.188       .  S
O468       Mg484   2.351       .  S
H469        C474   1.081       .  S
O470       Mg478   2.129       .  S
O470        C473   1.241       .  S
H471        C473   1.081       .  S
H472        C475   1.081       .  S
O477       Mg484   2.317       .  S
C480        C501   1.488       .  S
C480        O485   1.265       .  A
O481        C482   1.265       .  A
C487        N488   1.366       .  A
C487        N492   1.364       .  A
C487        C996   1.476       .  S
N488        C489   1.360       .  A
C489        N490   1.367       .  A
C489        C546   1.489       .  S
N490        C491   1.370       .  A
C491        N492   1.351       .  A
C493        N494   1.364       .  A
C493        N498   1.368       .  A
C493        C708   1.481       .  S
N494        C495   1.351       .  A
C495        N496   1.367       .  A
N496        C497   1.365       .  A
C497        N498   1.363       .  A
C499        N500   1.363       .  A
C499        N504   1.367       .  A
C499        C780   1.480       .  S
N500        C501   1.352       .  A
C501        N502   1.369       .  A
N502        C503   1.366       .  A
C503        N504   1.360       .  A
O505       Mg507   2.100       .  S
O505       Mg513   2.128       .  S
O505        C540   1.240       .  S
C506        O519   1.243       .  S
C506        O543   1.279       .  A
C506        H545   1.081       .  S
Mg507       O536   2.089       .  S
Mg507       O551   2.241       .  S
Mg507       O547   2.194       .  S
Mg507       O518   2.339       .  S
O508       Mg550   2.131       .  S
O508       Mg533   2.102       .  S
O508        C529   1.240       .  S
O509        C540   1.276       .  A
O509       Mg533   2.332       .  S
C510        O512   1.287       .  A
C510        O524   1.266       .  A
O511        C539   1.278       .  A
O511       Mg513   2.326       .  S
O512       Mg544   2.382       .  S
Mg513       O519   2.190       .  S
Mg513       O527   2.382       .  S
Mg513       O515   2.461       .  S
C514        C563   1.499       .  S
C514        O552   1.246       .  A
C514        O520   1.287       .  A
O515        C522   1.286       .  A
H516        C529   1.081       .  S
C517        O531   1.242       .  S
C517        O532   1.277       .  A
C517        H542   1.081       .  S
O518        C541   1.277       .  A
O519       Mg533   2.088       .  S
O520       Mg550   2.476       .  S
C521        O534   1.288       .  A
C521        O526   1.262   1_545  A
C522        C567   1.491       .  S
C522        O549   1.247       .  A
Mg523       O530   2.090       .  S
Mg523       O531   2.092       .  S
Mg523       O524   2.259       .  S
Mg523       O525   2.340       .  S
Mg523       O552   2.185       .  S
O525        C529   1.276       .  A
O526       Mg533   2.229       .  S
O527        C546   1.287       .  A
O528        C548   1.280       .  A
O528       Mg544   2.447       .  S
O530       Mg544   2.120       .  S
O530        C541   1.240       .  S
O531       Mg550   2.201       .  S
O532       Mg544   2.322       .  S
Mg533       O549   2.190       .  S
O534       Mg550   2.404   1_545  S
H535        C540   1.081       .  S
O536       Mg544   2.213       .  S
O536        C539   1.242       .  S
H537        C539   1.081       .  S
H538        C541   1.081       .  S
O543       Mg550   2.325       .  S
C546        O551   1.264       .  A
O547        C548   1.245       .  A
C548        C557   1.490       .  S
C553        N554   1.370       .  A
C553        N558   1.364       .  A
C553       C1068   1.463       .  S
N554        C555   1.363       .  A
C555        N556   1.367       .  A
N556        C557   1.362       .  A
C557        N558   1.348       .  A
C559        N560   1.368       .  A
C559        N564   1.364       .  A
C559        C588   1.461       .  S
N560        C561   1.362       .  A
C561        N562   1.372       .  A
N562        C563   1.369       .  A
C563        N564   1.348       .  A
C565        N566   1.363       .  A
C565        N570   1.368       .  A
C565       C1140   1.460       .  S
N566        C567   1.347       .  A
C567        N568   1.365       .  A
N568        C569   1.368       .  A
C569        N570   1.363       .  A
C571        N572   1.363       .  A
C571        N576   1.360       .  A
C571        C601   1.484       .  S
N572        C573   1.359       .  A
C573        N574   1.356       .  A
C573        C636   1.480       .  S
N574        C575   1.354       .  A
C575        N576   1.359       .  A
C575        C577   1.473       .  S
C577        C578   1.402       .  A
C577        C582   1.407       .  A
C578        H591   1.083       .  S
C578        C579   1.394       .  A
C579        H592   1.083       .  S
C579        C580   1.402       .  A
C580        C581   1.406       .  A
C580        C583   1.479       .  S
C581        H593   1.083       .  S
C581        C582   1.399       .  A
C582        H594   1.084       .  S
C583        C584   1.345   1_545  D
C583        H595   1.086       .  S
C584        C585   1.480       .  S
C584        H596   1.080       .  S
C585        C586   1.403       .  A
C585        C590   1.406       .  A
C586        H597   1.084       .  S
C586        C587   1.396       .  A
C587        H598   1.084       .  S
C587        C588   1.402       .  A
C588        C589   1.403       .  A
C589        H599   1.084       .  S
C589        C590   1.397       .  A
C590        H600   1.083       .  S
C601        C602   1.404       .  A
C601        C606   1.411       .  A
C602        H615   1.083       .  S
C602        C603   1.393       .  A
C603        H616   1.084       .  S
C603        C604   1.402       .  A
C604        C605   1.404       .  A
C604        C607   1.480       .  S
C605        H617   1.083       .  S
C605        C606   1.404       .  A
C606        H618   1.083       .  S
C607        C608   1.348       .  D
C607        H619   1.087       .  S
C608        C609   1.486       .  S
C608        H620   1.086       .  S
C609        C610   1.406       .  A
C609        C614   1.403       .  A
C610        H621   1.083       .  S
C610        C611   1.397       .  A
C611        H622   1.084       .  S
C611        C612   1.403       .  A
C612        C613   1.404       .  A
C613        H623   1.083       .  S
C613        C614   1.402       .  A
C614        H624   1.083       .  S
C625        C626   1.404       .  A
C625        C630   1.401       .  A
C626        H639   1.083   1_554  S
C626        C627   1.399   1_554  A
C627        H640   1.083       .  S
C627        C628   1.401       .  A
C628        C629   1.407   1_556  A
C628        C631   1.484       .  S
C629        H641   1.083       .  S
C629        C630   1.395       .  A
C630        H642   1.084       .  S
C631        C632   1.347       .  D
C631        H643   1.086       .  S
C632        C633   1.477       .  S
C632        H644   1.087       .  S
C633        C634   1.406       .  A
C633        C638   1.401       .  A
C634        H645   1.081       .  S
C634        C635   1.403       .  A
C635        H646   1.083       .  S
C635        C636   1.408       .  A
C636        C637   1.404       .  A
C637        H647   1.083       .  S
C637        C638   1.390       .  A
C638        H648   1.084       .  S
C649        C650   1.407       .  A
C649        C654   1.406       .  A
C650        H663   1.083       .  S
C650        C651   1.398       .  A
C651        H664   1.083       .  S
C651        C652   1.401       .  A
C652        C653   1.407       .  A
C652        C655   1.480       .  S
C653        H665   1.083       .  S
C653        C654   1.397       .  A
C654        H666   1.083       .  S
C655        C656   1.343       .  D
C655        H667   1.087       .  S
C656        C657   1.480       .  S
C656        H668   1.087       .  S
C657        C658   1.404       .  A
C657        C662   1.404       .  A
C658        H669   1.083       .  S
C658        C659   1.403       .  A
C659        H670   1.083       .  S
C659        C660   1.407       .  A
C660        C661   1.403       .  A
C661        H671   1.079       .  S
C661        C662   1.390       .  A
C662        H672   1.083       .  S
C673        C674   1.406       .  A
C673        C678   1.402       .  A
C674        H687   1.083       .  S
C674        C675   1.402       .  A
C675        H688   1.083       .  S
C675        C676   1.404       .  A
C676        C677   1.405       .  A
C676        C679   1.483       .  S
C677        H689   1.082       .  S
C677        C678   1.392       .  A
C678        H690   1.079       .  S
C679        C680   1.345       .  D
C679        H691   1.086       .  S
C680        C681   1.482       .  S
C680        H692   1.087       .  S
C681        C682   1.402       .  A
C681        C686   1.407       .  A
C682        H693   1.083       .  S
C682        C683   1.399       .  A
C683        H694   1.083       .  S
C683        C684   1.407       .  A
C684        C685   1.405       .  A
C685        H695   1.083       .  S
C685        C686   1.396       .  A
C686        H696   1.082       .  S
C697        C698   1.405       .  A
C697        C702   1.408       .  A
C698        H711   1.083       .  S
C698        C699   1.396       .  A
C699        H712   1.084       .  S
C699        C700   1.403       .  A
C700        C701   1.406       .  A
C700        C703   1.484       .  S
C701        H713   1.082       .  S
C701        C702   1.401       .  A
C702        H714   1.083       .  S
C703        C704   1.346       .  D
C703        H715   1.087       .  S
C704        C705   1.481       .  S
C704        H716   1.086       .  S
C705        C706   1.399       .  A
C705        C710   1.407       .  A
C706        H717   1.083       .  S
C706        C707   1.392       .  A
C707        H718   1.079       .  S
C707        C708   1.403       .  A
C708        C709   1.407       .  A
C709        H719   1.083       .  S
C709        C710   1.404       .  A
C710        H720   1.083       .  S
C721        C722   1.407       .  A
C721        C726   1.405       .  A
C722        H735   1.083       .  S
C722        C723   1.399       .  A
C723        H736   1.083       .  S
C723        C724   1.402       .  A
C724        C725   1.407       .  A
C724        C727   1.484       .  S
C725        H737   1.082       .  S
C725        C726   1.398       .  A
C726        H738   1.083       .  S
C727        C728   1.345       .  D
C727        H739   1.086       .  S
C728        C729   1.485       .  S
C728        H740   1.087       .  S
C729        C730   1.404       .  A
C729        C734   1.407       .  A
C730        H741   1.083       .  S
C730        C731   1.401       .  A
C731        H742   1.083       .  S
C731        C732   1.406       .  A
C732        C733   1.405       .  A
C733        H743   1.083       .  S
C733        C734   1.397       .  A
C734        H744   1.082       .  S
C745        C746   1.406       .  A
C745        C750   1.408       .  A
C746        H759   1.083       .  S
C746        C747   1.399       .  A
C747        H760   1.083       .  S
C747        C748   1.404       .  A
C748        C749   1.405       .  A
C748        C751   1.486       .  S
C749        H761   1.082       .  S
C749        C750   1.397       .  A
C750        H762   1.083       .  S
C751        C752   1.348       .  D
C751        H763   1.087       .  S
C752        C753   1.480       .  S
C752        H764   1.086       .  S
C753        C754   1.401       .  A
C753        C758   1.406       .  A
C754        H765   1.084       .  S
C754        C755   1.394       .  A
C755        H766   1.081       .  S
C755        C756   1.404       .  A
C756        C757   1.407       .  A
C757        H767   1.083       .  S
C757        C758   1.401       .  A
C758        H768   1.083       .  S
C769        C770   1.406       .  A
C769        C774   1.407       .  A
C770        H783   1.083       .  S
C770        C771   1.396       .  A
C771        H784   1.084       .  S
C771        C772   1.401       .  A
C772        C773   1.404       .  A
C772        C775   1.478       .  S
C773        H785   1.083       .  S
C773        C774   1.399       .  A
C774        H786   1.083       .  S
C775        C776   1.347       .  D
C775        H787   1.087       .  S
C776        C777   1.478       .  S
C776        H788   1.087       .  S
C777        C778   1.401       .  A
C777        C782   1.404       .  A
C778        H789   1.084       .  S
C778        C779   1.395       .  A
C779        H790   1.083       .  S
C779        C780   1.406       .  A
C780        C781   1.407       .  A
C781        H791   1.083       .  S
C781        C782   1.399       .  A
C782        H792   1.083       .  S
C793        C794   1.401       .  A
C793        C798   1.403       .  A
C794        H807   1.083       .  S
C794        C795   1.396       .  A
C795        H808   1.083       .  S
C795        C796   1.408       .  A
C796        C797   1.403       .  A
C796        C799   1.486       .  S
C797        H809   1.083       .  S
C797        C798   1.400       .  A
C798        H810   1.083       .  S
C799        C800   1.347       .  D
C799        H811   1.087   1_556  S
C800        C801   1.476   1_556  S
C800        H812   1.086       .  S
C801        C802   1.401       .  A
C801        C806   1.403       .  A
C802        H813   1.084       .  S
C802        C803   1.392       .  A
C803        H814   1.082       .  S
C803        C804   1.403       .  A
C804        C805   1.411       .  A
C805        H815   1.083       .  S
C805        C806   1.403       .  A
C806        H816   1.083       .  S
C817        C818   1.408       .  A
C817        C822   1.406       .  A
C818        H831   1.083       .  S
C818        C819   1.401       .  A
C819        H832   1.083       .  S
C819        C820   1.401       .  A
C820        C821   1.402       .  A
C820        C823   1.475       .  S
C821        H833   1.084       .  S
C821        C822   1.394       .  A
C822        H834   1.081       .  S
C823        C824   1.346       .  D
C823        H835   1.083       .  S
C824        C825   1.487   1_655  S
C824        H836   1.088       .  S
C825        C826   1.403       .  A
C825        C830   1.410   1_455  A
C826        H837   1.084       .  S
C826        C827   1.395       .  A
C827        H838   1.084       .  S
C827        C828   1.401       .  A
C828        C829   1.401       .  A
C829        H839   1.084       .  S
C829        C830   1.399   1_455  A
C830        H840   1.081       .  S
C841        C842   1.404       .  A
C841        C846   1.405       .  A
C842        H855   1.084       .  S
C842        C843   1.398       .  A
C843        H856   1.083       .  S
C843        C844   1.407       .  A
C844        C845   1.403       .  A
C844        C847   1.488       .  S
C845        H857   1.083       .  S
C845        C846   1.402       .  A
C846        H858   1.084       .  S
C847        C848   1.349       .  D
C847        H859   1.086       .  S
C848        C849   1.482       .  S
C848        H860   1.087       .  S
C849        C850   1.405       .  A
C849        C854   1.402       .  A
C850        H861   1.083       .  S
C850        C851   1.406       .  A
C851        H862   1.083       .  S
C851        C852   1.411       .  A
C852        C853   1.405       .  A
C853        H863   1.083       .  S
C853        C854   1.393       .  A
C854        H864   1.084       .  S
C865        C866   1.403       .  A
C865        C870   1.399       .  A
C866        H879   1.083       .  S
C866        C867   1.398       .  A
C867        H880   1.084       .  S
C867        C868   1.404       .  A
C868        C869   1.410       .  A
C868        C871   1.482       .  S
C869        H881   1.081       .  S
C869        C870   1.394       .  A
C870        H882   1.083       .  S
C871        C872   1.345       .  D
C871        H883   1.087       .  S
C872        C873   1.480       .  S
C872        H884   1.086       .  S
C873        C874   1.404   1_554  A
C873        C878   1.404       .  A
C874        H885   1.083       .  S
C874        C875   1.403       .  A
C875        H886   1.083       .  S
C875        C876   1.407       .  A
C876        C877   1.402       .  A
C877        H887   1.083       .  S
C877        C878   1.388   1_556  A
C878        H888   1.082       .  S
C889        C890   1.405       .  A
C889        C894   1.402   1_565  A
C890        H903   1.083       .  S
C890        C891   1.400   1_565  A
C891        H904   1.083       .  S
C891        C892   1.404       .  A
C892        C893   1.407       .  A
C892        C895   1.482       .  S
C893        H905   1.082       .  S
C893        C894   1.393       .  A
C894        H906   1.079   1_545  S
C895        C896   1.344       .  D
C895        H907   1.087       .  S
C896        C897   1.481       .  S
C896        H908   1.086       .  S
C897        C898   1.401       .  A
C897        C902   1.407       .  A
C898        H909   1.083       .  S
C898        C899   1.399       .  A
C899        H910   1.083       .  S
C899        C900   1.408       .  A
C900        C901   1.405       .  A
C901        H911   1.083       .  S
C901        C902   1.397       .  A
C902        H912   1.083       .  S
C913        C914   1.398       .  A
C913        C918   1.405       .  A
C914        H927   1.076       .  S
C914        C915   1.393       .  A
C915        H928   1.084   1_655  S
C915        C916   1.402   1_655  A
C916        C917   1.407   1_455  A
C916        C919   1.480       .  S
C917        H929   1.083   1_655  S
C917        C918   1.399       .  A
C918        H930   1.083       .  S
C919        C920   1.346       .  D
C919        H931   1.086       .  S
C920        C921   1.479       .  S
C920        H932   1.087       .  S
C921        C922   1.401       .  A
C921        C926   1.406       .  A
C922        H933   1.084       .  S
C922        C923   1.393       .  A
C923        H934   1.083       .  S
C923        C924   1.405       .  A
C924        C925   1.407       .  A
C925        H935   1.083       .  S
C925        C926   1.400       .  A
C926        H936   1.083       .  S
C937        C938   1.406       .  A
C937        C942   1.406       .  A
C938        H951   1.083       .  S
C938        C939   1.401       .  A
C939        H952   1.083       .  S
C939        C940   1.404       .  A
C940        C941   1.407       .  A
C940        C943   1.485       .  S
C941        H953   1.082       .  S
C941        C942   1.396       .  A
C942        H954   1.083       .  S
C943        C944   1.346       .  D
C943        H955   1.087       .  S
C944        C945   1.485       .  S
C944        H956   1.086       .  S
C945        C946   1.404       .  A
C945        C950   1.407       .  A
C946        H957   1.083       .  S
C946        C947   1.402       .  A
C947        H958   1.083       .  S
C947        C948   1.406       .  A
C948        C949   1.405       .  A
C949        H959   1.082       .  S
C949        C950   1.395       .  A
C950        H960   1.082       .  S
C961        C962   1.407       .  A
C961        C966   1.404       .  A
C962        H975   1.083       .  S
C962        C963   1.399       .  A
C963        H976   1.083       .  S
C963        C964   1.402       .  A
C964        C965   1.408       .  A
C964        C967   1.482       .  S
C965        H977   1.082       .  S
C965        C966   1.395       .  A
C966        H978   1.083       .  S
C967        C968   1.344       .  D
C967        H979   1.086       .  S
C968        C969   1.483       .  S
C968        H980   1.087       .  S
C969        C970   1.404       .  A
C969        C974   1.407       .  A
C970        H981   1.083       .  S
C970        C971   1.400       .  A
C971        H982   1.083       .  S
C971        C972   1.405       .  A
C972        C973   1.403       .  A
C973        H983   1.081       .  S
C973        C974   1.395       .  A
C974        H984   1.082       .  S
C985        C986   1.409       .  A
C985        C990   1.404       .  A
C986        H999   1.083       .  S
C986        C987   1.398       .  A
C987       H1000   1.083       .  S
C987        C988   1.400       .  A
C988        C989   1.408       .  A
C988        C991   1.482       .  S
C989       H1001   1.082       .  S
C989        C990   1.398       .  A
C990       H1002   1.083       .  S
C991        C992   1.344       .  D
C991       H1003   1.086       .  S
C992        C993   1.484       .  S
C992       H1004   1.087       .  S
C993        C994   1.404       .  A
C993        C998   1.408       .  A
C994       H1005   1.083       .  S
C994        C995   1.400       .  A
C995       H1006   1.083       .  S
C995        C996   1.405       .  A
C996        C997   1.400       .  A
C997       H1007   1.079       .  S
C997        C998   1.393       .  A
C998       H1008   1.082       .  S
C1009      C1010   1.410       .  A
C1009      C1014   1.404       .  A
C1010      H1023   1.083       .  S
C1010      C1011   1.401       .  A
C1011      H1024   1.083       .  S
C1011      C1012   1.402       .  A
C1012      C1013   1.399       .  A
C1012      C1015   1.471       .  S
C1013      H1025   1.084       .  S
C1013      C1014   1.390       .  A
C1014      H1026   1.083       .  S
C1015      C1016   1.345       .  D
C1015      H1027   1.086       .  S
C1016      C1017   1.484       .  S
C1016      H1028   1.087       .  S
C1017      C1018   1.408       .  A
C1017      C1022   1.403       .  A
C1018      H1029   1.083   1_565  S
C1018      C1019   1.395   1_565  A
C1019      H1030   1.083       .  S
C1019      C1020   1.400       .  A
C1020      C1021   1.402   1_545  A
C1021      H1031   1.084       .  S
C1021      C1022   1.398       .  A
C1022      H1032   1.083       .  S
C1033      C1034   1.411       .  A
C1033      C1038   1.403       .  A
C1034      H1047   1.083       .  S
C1034      C1035   1.403       .  A
C1035      H1048   1.083       .  S
C1035      C1036   1.404       .  A
C1036      C1037   1.401       .  A
C1036      C1039   1.476   1_455  S
C1037      H1049   1.084       .  S
C1037      C1038   1.390       .  A
C1038      H1050   1.083       .  S
C1039      C1040   1.347       .  D
C1039      H1051   1.087       .  S
C1040      C1041   1.485       .  S
C1040      H1052   1.086       .  S
C1041      C1042   1.402       .  A
C1041      C1046   1.408       .  A
C1042      H1053   1.083       .  S
C1042      C1043   1.400       .  A
C1043      H1054   1.084       .  S
C1043      C1044   1.404       .  A
C1044      C1045   1.402       .  A
C1045      H1055   1.084       .  S
C1045      C1046   1.396       .  A
C1046      H1056   1.083       .  S
C1057      C1058   1.403       .  A
C1057      C1062   1.408       .  A
C1058      H1071   1.082       .  S
C1058      C1059   1.391       .  A
C1059      H1072   1.083       .  S
C1059      C1060   1.405       .  A
C1060      C1061   1.402       .  A
C1060      C1063   1.480       .  S
C1061      H1073   1.083       .  S
C1061      C1062   1.402       .  A
C1062      H1074   1.083       .  S
C1063      C1064   1.346       .  D
C1063      H1075   1.083       .  S
C1064      C1065   1.485       .  S
C1064      H1076   1.088       .  S
C1065      C1066   1.404       .  A
C1065      C1070   1.409       .  A
C1066      H1077   1.084       .  S
C1066      C1067   1.395       .  A
C1067      H1078   1.084       .  S
C1067      C1068   1.401       .  A
C1068      C1069   1.401       .  A
C1069      H1079   1.084       .  S
C1069      C1070   1.399       .  A
C1070      H1080   1.080       .  S
C1081      C1082   1.404       .  A
C1081      C1086   1.409       .  A
C1082      H1095   1.083       .  S
C1082      C1083   1.394       .  A
C1083      H1096   1.084       .  S
C1083      C1084   1.401       .  A
C1084      C1085   1.402       .  A
C1084      C1087   1.474       .  S
C1085      H1097   1.082       .  S
C1085      C1086   1.401       .  A
C1086      H1098   1.083       .  S
C1087      C1088   1.345       .  D
C1087      H1099   1.087       .  S
C1088      C1089   1.480       .  S
C1088      H1100   1.086       .  S
C1089      C1090   1.401       .  A
C1089      C1094   1.406       .  A
C1090      H1101   1.083       .  S
C1090      C1091   1.397       .  A
C1091      H1102   1.084       .  S
C1091      C1092   1.404       .  A
C1092      C1093   1.402       .  A
C1093      H1103   1.084       .  S
C1093      C1094   1.397       .  A
C1094      H1104   1.083       .  S
C1105      C1106   1.410       .  A
C1105      C1110   1.405       .  A
C1106      H1119   1.083       .  S
C1106      C1107   1.403       .  A
C1107      H1120   1.082       .  S
C1107      C1108   1.404       .  A
C1108      C1109   1.401       .  A
C1108      C1111   1.476       .  S
C1109      H1121   1.084       .  S
C1109      C1110   1.390       .  A
C1110      H1122   1.083       .  S
C1111      C1112   1.347       .  D
C1111      H1123   1.088       .  S
C1112      C1113   1.481       .  S
C1112      H1124   1.086       .  S
C1113      C1114   1.402       .  A
C1113      C1118   1.406       .  A
C1114      H1125   1.083       .  S
C1114      C1115   1.399       .  A
C1115      H1126   1.084       .  S
C1115      C1116   1.404       .  A
C1116      C1117   1.401       .  A
C1117      H1127   1.083       .  S
C1117      C1118   1.396       .  A
C1118      H1128   1.083       .  S
C1129      C1130   1.405       .  A
C1129      C1134   1.409       .  A
C1130      H1143   1.083       .  S
C1130      C1131   1.393       .  A
C1131      H1144   1.084       .  S
C1131      C1132   1.400       .  A
C1132      C1133   1.402       .  A
C1132      C1135   1.473       .  S
C1133      H1145   1.082       .  S
C1133      C1134   1.398       .  A
C1134      H1146   1.083       .  S
C1135      C1136   1.345       .  D
C1135      H1147   1.087       .  S
C1136      C1137   1.479       .  S
C1136      H1148   1.087       .  S
C1137      C1138   1.405       .  A
C1137      C1142   1.401       .  A
C1138      H1149   1.083       .  S
C1138      C1139   1.394       .  A
C1139      H1150   1.084       .  S
C1139      C1140   1.401       .  A
C1140      C1141   1.403       .  A
C1141      H1151   1.084       .  S
C1141      C1142   1.398       .  A
C1142      H1152   1.083       .  S
