geometry optimzed in LAMMPS
_audit_creation_date              2020-11-30 
_audit_creation_method            'lammps2cif' 
_symmetry_space_group_name_H-M    'P1' 
_symmetry_Int_Tables_number       1 
_symmetry_cell_setting            triclinic 
loop_ 
_symmetry_equiv_pos_as_xyz 
  x,y,z 
_cell_length_a                    71.45603469 
_cell_length_b                    37.49489033719461 
_cell_length_c                    40.15529126565529 
_cell_angle_alpha                 89.93469421675154 
_cell_angle_beta                  90.1477225367478 
_cell_angle_gamma                 90.02001258308105 
loop_ 
_atom_site_label 
_atom_site_type_symbol 
_atom_site_fract_x 
_atom_site_fract_y 
_atom_site_fract_z 
_atom_site_charge 
C1          C  0.01947689  0.06885805  0.16358365     0.80400
N2          N  0.02480174  0.08717404  0.19139836    -0.77900
C3          C  0.04023015  0.10840663  0.19043522     0.82900
N4          N  0.05002641  0.11159950  0.16177337    -0.77800
C5          C  0.04508853  0.09320494  0.13420414     0.83000
N6          N  0.02970858  0.07196424  0.13506151    -0.79500
O7          O  0.85500697  0.91894296  0.07579337    -0.78300
C8          C  0.90271029  0.92496326  0.14346974     0.82800
O9          O  0.89823605  0.82033872  0.05020728    -0.79400
O10         O  0.90278269  0.81550031  0.16853660    -0.80900
O11         O  0.83619861  0.84184908  0.16909327    -0.80700
O12         O  0.83074399  0.88795341  0.09527574    -0.79300
Zn13       Zn  0.87840178  0.89147016  0.08845868     1.55700
O14         O  0.86271409  0.85195298  0.19711860    -0.80700
Cd15       Cd  0.84387968  0.84342420  0.11804483     1.59700
Cd16       Cd  0.88321032  0.80622613  0.09256734     1.59600
O17         O  0.83524147  0.79580192  0.09336222    -0.80700
O18         O  0.87198075  0.84936266  0.11456775    -1.91200
Cd19       Cd  0.88314893  0.85491261  0.16035876     1.59900
O20         O  0.86230934  0.77093972  0.07833141    -0.80700
O21         O  0.89861469  0.90163320  0.16535780    -0.79300
C22         C  0.90112402  0.85037657  0.03621037     0.83200
C23         C  0.83739466  0.91514385  0.07992480     0.82900
O24         O  0.89552920  0.92384291  0.11442285    -0.78300
C25         C  0.84508372  0.84624869  0.19662510     0.83700
O26         O  0.89375103  0.87890211  0.04746852    -0.78400
C27         C  0.84444355  0.77049264  0.07943762     0.83800
C28         C  0.90896978  0.78891349  0.15216471     0.84100
O29         O  0.90247100  0.78079097  0.12353630    -0.80800
N30         N  0.78391447  0.58157011  0.94028975    -0.03300
C31         C  0.77093082  0.55586278  0.94674030    -0.00700
C32         C  0.76626876  0.53780598  0.91794045    -0.23600
C33         C  0.77659614  0.55264881  0.89280758    -0.23800
C34         C  0.78731430  0.57929432  0.90697538    -0.00800
H35         H  0.75631390  0.51618550  0.91552325     0.13000
H36         H  0.77622999  0.54509191  0.86680052     0.13000
C37         C  0.01049904  0.59162299  0.30954334     0.80400
N38         N  0.00621507  0.61203169  0.28237101    -0.77900
C39         C  0.99206553  0.63627153  0.28432866     0.82900
N40         N  0.98222606  0.63950587  0.31289099    -0.77800
C41         C  0.98602691  0.61889195  0.33965227     0.83000
N42         N  0.00030227  0.59508783  0.33802281    -0.79500
O43         O  0.16715635  0.41714526  0.39082312    -0.78300
C44         C  0.11664260  0.41887878  0.32941526     0.82800
O45         O  0.12520495  0.31664857  0.42199943    -0.79400
O46         O  0.11873718  0.30587311  0.30577111    -0.80900
O47         O  0.18336371  0.33759914  0.29791115    -0.80700
O48         O  0.19052835  0.38596757  0.36838529    -0.79300
Zn49       Zn  0.14365028  0.38798317  0.38162278     1.55700
O50         O  0.15579953  0.34783320  0.27333243    -0.80700
Cd51       Cd  0.17737779  0.34046491  0.34928440     1.59700
Cd52       Cd  0.14006968  0.30190880  0.37998185     1.59600
O53         O  0.18817729  0.29577593  0.37538752    -0.80700
O54         O  0.14949043  0.34528930  0.35596080    -1.91200
Cd55       Cd  0.13641554  0.34888597  0.31182919     1.59900
O56         O  0.16223997  0.27048303  0.39520438    -0.80700
O57         O  0.11931492  0.39406884  0.30824313    -0.79300
C58         C  0.12231489  0.34685249  0.43556945     0.83200
C59         C  0.18449721  0.41336386  0.38397153     0.82900
O60         O  0.12551465  0.41931546  0.35694059    -0.78300
C61         C  0.17341949  0.34230394  0.27164622     0.83700
O62         O  0.12937392  0.37549229  0.42381514    -0.78400
C63         C  0.18000669  0.27121074  0.39212862     0.83800
C64         C  0.11449569  0.27806695  0.32243958     0.84100
O65         O  0.12186998  0.27159796  0.35077222    -0.80800
N66         N  0.24580966  0.09022197  0.53191680    -0.03300
C67         C  0.25901839  0.06522455  0.52510740    -0.00700
C68         C  0.26423584  0.04763214  0.55391914    -0.23600
C69         C  0.25396159  0.06220175  0.57934872    -0.23800
C70         C  0.24276329  0.08823019  0.56530419    -0.00800
H71         H  0.27446828  0.02647423  0.55614819     0.13000
H72         H  0.25462381  0.05475128  0.60537532     0.13000
C73         C  0.00861285  0.39004294  0.65535957     0.80400
N74         N  0.01426496  0.37406623  0.68428648    -0.77900
C75         C  0.02917191  0.35137942  0.68397246     0.82900
N76         N  0.03837738  0.34509836  0.65504450    -0.77800
C77         C  0.03314730  0.36144152  0.62642364     0.83000
N78         N  0.01822505  0.38376134  0.62675616    -0.79500
O79         O  0.89475392  0.56715109  0.60664347    -0.78300
C80         C  0.83675018  0.58016591  0.57939638     0.82800
O81         O  0.89771484  0.67547365  0.54814997    -0.79400
O82         O  0.83445042  0.69412268  0.59685255    -0.80900
O83         O  0.86850884  0.63606073  0.69480449    -0.80700
O84         O  0.90258860  0.59073101  0.65529843    -0.79300
Zn85       Zn  0.87773526  0.60283140  0.58465894     1.55700
O86         O  0.84026909  0.64707472  0.67291156    -0.80700
Cd87       Cd  0.88691892  0.63732757  0.65506301     1.59700
Cd88       Cd  0.88237956  0.68870655  0.59034171     1.59600
O89         O  0.90615133  0.67807470  0.66144477    -0.80700
O90         O  0.87285387  0.64404757  0.61248909    -1.91200
Cd91       Cd  0.84510015  0.64817619  0.62082433     1.59900
O92         O  0.90106402  0.71711112  0.62051454    -0.80700
O93         O  0.83096913  0.60504655  0.59854647    -0.79300
C94         C  0.90018576  0.64542200  0.53399134     0.83200
C95         C  0.90411466  0.56614928  0.63361164     0.82900
O96         O  0.85398527  0.57743015  0.57165909    -0.78300
C97         C  0.85090799  0.64074656  0.69806732     0.83700
O98         O  0.89243360  0.61711339  0.54469768    -0.78400
C99         C  0.90992964  0.70730127  0.64660585     0.83800
C100        C  0.84218220  0.71876008  0.57952943     0.84100
O101        O  0.85991870  0.72019176  0.57568029    -0.80800
N102        N  0.77111100  0.88800759  0.43444445    -0.03300
C103        C  0.75993448  0.91593948  0.44303944    -0.00700
C104        C  0.75278885  0.93222422  0.41491576    -0.23600
C105        C  0.75981234  0.91422938  0.38808291    -0.23800
C106        C  0.77120990  0.88747877  0.40042486    -0.00800
H107        H  0.74383631  0.95549424  0.41406769     0.13000
H108        H  0.75754444  0.92099700  0.36217452     0.13000
C109        C  0.01288981  0.89518836  0.81208554     0.80400
N110        N  0.00759549  0.87721247  0.78402860    -0.77900
C111        C  0.99315606  0.85341563  0.78545139     0.82900
N112        N  0.98401008  0.84794642  0.81464634    -0.77800
C113        C  0.98884595  0.86633957  0.84237770     0.83000
N114        N  0.00322151  0.88986553  0.84085549    -0.79500
O115        O  0.12833288  0.06987822  0.85449241    -0.78300
C116        C  0.18903878  0.08036584  0.87810302     0.82800
O117        O  0.12599988  0.16556112  0.92138016    -0.79400
O118        O  0.18696964  0.20033758  0.87327682    -0.80900
O119        O  0.15702418  0.14332347  0.77105046    -0.80700
O120        O  0.12153032  0.09447679  0.80571364    -0.79300
Zn121      Zn  0.14734528  0.10061751  0.87772948     1.55700
O122        O  0.18434028  0.15846364  0.79433782    -0.80700
Cd123      Cd  0.13795911  0.14042199  0.80961608     1.59700
Cd124      Cd  0.13946493  0.18497290  0.87918086     1.59600
O125        O  0.11893865  0.18125860  0.80442561    -0.80700
O126        O  0.15116682  0.14480827  0.85347739    -1.91200
Cd127      Cd  0.17882956  0.15397205  0.84633073     1.59900
O128        O  0.11962332  0.21308469  0.85125154    -0.80700
O129        O  0.19424908  0.10979545  0.86473408    -0.79300
C130        C  0.12609538  0.13482326  0.93504547     0.83200
C131        C  0.11892951  0.07028370  0.82751426     0.82900
O132        O  0.17176656  0.07388346  0.88358089    -0.78300
C133        C  0.17431631  0.15149328  0.76854523     0.83700
O134        O  0.13501871  0.10881340  0.92226971    -0.78400
C135        C  0.11297312  0.20687396  0.82232550     0.83800
C136        C  0.17770583  0.22261235  0.89104809     0.84100
O137        O  0.16003852  0.21978030  0.89479021    -0.80800
N138        N  0.23800523  0.41077354  0.03103857    -0.03300
C139        C  0.24892794  0.43919360  0.02278010    -0.00700
C140        C  0.25418455  0.45776565  0.05094445    -0.23600
C141        C  0.24649706  0.44026374  0.07753615    -0.23800
C142        C  0.23663950  0.41154639  0.06490915    -0.00800
H143        H  0.26298813  0.48124140  0.05200405     0.13000
H144        H  0.24802924  0.44753616  0.10348242     0.13000
C145        C  0.50771302  0.58630807  0.15590625     0.80400
N146        N  0.50203211  0.60388618  0.18383239    -0.77900
C147        C  0.48587814  0.62294836  0.18323351     0.82900
N148        N  0.47551569  0.62426070  0.15509165    -0.77800
C149        C  0.48086181  0.60686488  0.12720239     0.83000
N150        N  0.49710851  0.58795698  0.12759946    -0.79500
O151        O  0.62847028  0.42851486  0.11406526    -0.78300
C152        C  0.68708797  0.41316829  0.08626134     0.82800
O153        O  0.62402922  0.32546945  0.05052313    -0.79400
O154        O  0.68590825  0.29651921  0.09843556    -0.80900
O155        O  0.65560121  0.35496536  0.19801331    -0.80700
O156        O  0.62112449  0.40326610  0.16228271    -0.79300
Zn157      Zn  0.64524097  0.39410830  0.08990256     1.55700
O158        O  0.68296719  0.34067610  0.17478145    -0.80700
Cd159      Cd  0.63645877  0.35640944  0.15955912     1.59700
Cd160      Cd  0.63849368  0.30905291  0.09241221     1.59600
O161        O  0.61745578  0.31561405  0.16650866    -0.80700
O162        O  0.64952607  0.35113550  0.11597895    -1.91200
Cd163      Cd  0.67718328  0.34308137  0.12331427     1.59900
O164        O  0.61973926  0.28071218  0.12189081    -0.80700
O165        O  0.69239831  0.38582196  0.10285874    -0.79300
C166        C  0.62258146  0.35566351  0.03615818     0.83200
C167        C  0.61944030  0.42863055  0.14136186     0.82900
O168        O  0.66981126  0.41862766  0.07982596    -0.78300
C169        C  0.67298996  0.34768644  0.20042773     0.83700
O170        O  0.63071999  0.38337723  0.04755558    -0.78400
C171        C  0.61253074  0.28808791  0.15006516     0.83800
C172        C  0.67707965  0.27368739  0.08064168     0.84100
O173        O  0.65939979  0.27540846  0.07660727    -0.80800
N174        N  0.74487101  0.09834630  0.93923786    -0.03300
C175        C  0.75935096  0.07530461  0.94435596    -0.00700
C176        C  0.76566311  0.06197159  0.91437113    -0.23600
C177        C  0.75484346  0.07702557  0.88989971    -0.23800
C178        C  0.74218666  0.09911902  0.90556253    -0.00800
H179        H  0.77685471  0.04292775  0.91077296     0.13000
H180        H  0.75591871  0.07210253  0.86341911     0.13000
C181        C  0.51481908  0.08382004  0.30762956     0.80400
N182        N  0.52574958  0.08675511  0.33542741    -0.77900
C183        C  0.54071580  0.10912561  0.33584745     0.82900
N184        N  0.54456369  0.12872044  0.30846146    -0.77800
C185        C  0.53404132  0.12588238  0.28053827     0.83000
N186        N  0.51910450  0.10336368  0.27994971    -0.79500
O187        O  0.39447870  0.92222917  0.35104032    -0.78300
C188        C  0.33564428  0.91573475  0.38057419     0.82800
O189        O  0.39548304  0.81751715  0.41091412    -0.79400
O190        O  0.33237812  0.79893410  0.37047211    -0.80900
O191        O  0.36154027  0.85417833  0.26631665    -0.80700
O192        O  0.39884086  0.90145702  0.30003125    -0.79300
Zn193      Zn  0.37616646  0.89010981  0.37414791     1.55700
O194        O  0.33466349  0.84208814  0.29256042    -0.80700
Cd195      Cd  0.38216234  0.85526742  0.30292983     1.59700
Cd196      Cd  0.37985481  0.80442135  0.36924387     1.59600
O197        O  0.40053582  0.81348931  0.29409721    -0.80700
O198        O  0.36989202  0.84881328  0.34754497    -1.91200
Cd199      Cd  0.34184744  0.84420295  0.34355773     1.59900
O200        O  0.39724473  0.77661855  0.33736507    -0.80700
O201        O  0.32884870  0.88919534  0.36460804    -0.79300
C202        C  0.39763872  0.84718616  0.42586899     0.83200
C203        C  0.40259490  0.92396662  0.32292681     0.82900
O204        O  0.35320024  0.91851035  0.38576921    -0.78300
C205        C  0.34395306  0.84774496  0.26575624     0.83700
O206        O  0.39004185  0.87577715  0.41536766    -0.78400
C207        C  0.40460897  0.78472563  0.30948305     0.83800
C208        C  0.34085407  0.77326234  0.38529837     0.84100
O209        O  0.35865861  0.77117119  0.38565012    -0.80800
N210        N  0.27314648  0.59640936  0.52740012    -0.03300
C211        C  0.26127122  0.56989494  0.51794657    -0.00700
C212        C  0.25392826  0.55296174  0.54551249    -0.23600
C213        C  0.26138654  0.56945687  0.57291192    -0.23800
C214        C  0.27317569  0.59594671  0.56132687    -0.00800
H215        H  0.24417288  0.53086197  0.54558780     0.13000
H216        H  0.25876764  0.56243740  0.59863625     0.13000
C217        C  0.50932322  0.39032407  0.81160776     0.80400
N218        N  0.51443109  0.37153300  0.78384764    -0.77900
C219        C  0.53033513  0.35135961  0.78425738     0.82900
N220        N  0.54096569  0.35015001  0.81225934    -0.77800
C221        C  0.53630149  0.36919159  0.83967926     0.83000
N222        N  0.52044346  0.38913842  0.83924535    -0.79500
O223        O  0.34949374  0.57077092  0.88689235    -0.78300
C224        C  0.39920400  0.55475571  0.82595531     0.82800
O225        O  0.39764384  0.66217568  0.91213235    -0.79400
O226        O  0.40425645  0.66478893  0.79579282    -0.80900
O227        O  0.33743332  0.65024195  0.79105225    -0.80700
O228        O  0.32771702  0.60429566  0.86241959    -0.79300
Zn229      Zn  0.37434633  0.59396006  0.87558923     1.55700
O230        O  0.36351547  0.63289500  0.76505916    -0.80700
Cd231      Cd  0.34367151  0.64582334  0.84201632     1.59700
Cd232      Cd  0.38336148  0.67882044  0.86969620     1.59600
O233        O  0.33591750  0.69176020  0.86834605    -0.80700
O234        O  0.37117801  0.63625205  0.84790529    -1.91200
Cd235      Cd  0.38326123  0.62736000  0.80354559     1.59900
O236        O  0.36300992  0.71526883  0.88535741    -0.80700
O237        O  0.39710340  0.57784616  0.80279591    -0.79300
C238        C  0.39834831  0.63215868  0.92705253     0.83200
C239        C  0.33238585  0.57722786  0.87992578     0.82900
O240        O  0.39072000  0.55787744  0.85358036    -0.78300
C241        C  0.34641215  0.64310256  0.76429104     0.83700
O242        O  0.38930119  0.60508072  0.91673132    -0.78400
C243        C  0.34511798  0.71577123  0.88399463     0.83800
C244        C  0.41050232  0.69227122  0.81094796     0.84100
O245        O  0.40350931  0.70250565  0.83862635    -0.80800
N246        N  0.27960991  0.90017114  0.02081329    -0.03300
C247        C  0.26911070  0.92820335  0.00988565    -0.00700
C248        C  0.26257999  0.94783883  0.03645967    -0.23600
C249        C  0.26903165  0.93154479  0.06472471    -0.23800
C250        C  0.27943061  0.90236389  0.05474524    -0.00800
H251        H  0.25372884  0.97123680  0.03532265     0.13000
H252        H  0.26645363  0.94014186  0.09002576     0.13000
C253        C  0.50994484  0.88955531  0.64902616     0.80400
N254        N  0.49901175  0.88653782  0.62132278    -0.77900
C255        C  0.48509503  0.86205244  0.61964342     0.82900
N256        N  0.48215484  0.84030790  0.64591347    -0.77800
C257        C  0.49258763  0.84292747  0.67400037     0.83000
N258        N  0.50653029  0.86784026  0.67583032    -0.79500
O259        O  0.67058025  0.06830634  0.57937608    -0.78300
C260        C  0.61809285  0.06038259  0.63587641     0.82800
O261        O  0.62626443  0.16420119  0.54728014    -0.79400
O262        O  0.61618953  0.17023897  0.66306688    -0.80900
O263        O  0.68269201  0.14858027  0.67453950    -0.80700
O264        O  0.69312799  0.10177230  0.60182205    -0.79300
Zn265      Zn  0.64621841  0.09453953  0.58784030     1.55700
O266        O  0.65504066  0.13405896  0.69698020    -0.80700
Cd267      Cd  0.67787769  0.14478567  0.62245736     1.59700
Cd268      Cd  0.63928531  0.17994123  0.59110190     1.59600
O269        O  0.68730080  0.19093796  0.59719531    -0.80700
O270        O  0.65011038  0.13718742  0.61452594    -1.91200
Cd271      Cd  0.63627216  0.13063744  0.65751159     1.59900
O272        O  0.66074432  0.21392074  0.57726957    -0.80700
O273        O  0.62077715  0.08323340  0.65890518    -0.79300
C274        C  0.62564985  0.13411592  0.53257106     0.83200
C275        C  0.68784285  0.07412487  0.58560999     0.82900
O276        O  0.62728035  0.06171517  0.60878065    -0.78300
C277        C  0.67232654  0.14235335  0.69997480     0.83700
O278        O  0.63371788  0.10663890  0.54449437    -0.78400
C279        C  0.67853782  0.21468858  0.58033448     0.83800
C280        C  0.61097069  0.19775387  0.64676594     0.84100
O281        O  0.61888393  0.20657018  0.61945523    -0.80800
N282        N  0.74335509  0.39826827  0.44128111    -0.03300
C283        C  0.75657445  0.42331241  0.44834724    -0.00700
C284        C  0.76218078  0.44065285  0.41970996    -0.23600
C285        C  0.75216675  0.42614014  0.39400738    -0.23800
C286        C  0.74069570  0.40042095  0.40769745    -0.00800
H287        H  0.77238397  0.46190510  0.41785755     0.13000
H288        H  0.75304140  0.43364092  0.36801882     0.13000
C289        C  0.67723365  0.32102202  0.50784596    -0.17600
C290        C  0.68618431  0.34687016  0.48848979    -0.19800
C291        C  0.70577178  0.34795998  0.48670186     0.20900
C292        C  0.71647240  0.32290696  0.50486650    -0.02700
C293        C  0.70739406  0.29669547  0.52447432    -0.05800
C294        C  0.68769510  0.29581241  0.52581616     0.21100
C295        C  0.71797017  0.27124513  0.54240147     0.19300
C296        C  0.73761486  0.27257058  0.54066220    -0.17300
C297        C  0.74662364  0.29862829  0.52129660    -0.19500
C298        C  0.73619207  0.32385972  0.50317837     0.20800
C299        C  0.74503074  0.34959832  0.48294571    -0.32500
C300        C  0.73436446  0.37402699  0.46416669     0.01500
C301        C  0.71479004  0.37337222  0.46668606    -0.23800
C302        C  0.67869053  0.26956992  0.54477164    -0.28400
C303        C  0.68893224  0.24363222  0.56255122     0.07200
C304        C  0.70868762  0.24481378  0.56135814    -0.27100
H305        H  0.66207376  0.32063644  0.50861480     0.11900
H306        H  0.67776815  0.36586747  0.47469745     0.13000
H307        H  0.74602653  0.25334315  0.55417147     0.12100
H308        H  0.76177875  0.29887601  0.52030808     0.11300
H309        H  0.76015076  0.35005564  0.48096315     0.16700
H310        H  0.70658971  0.39272112  0.45303131     0.12600
H311        H  0.66352469  0.26916392  0.54522834     0.15500
H312        H  0.71680119  0.22496538  0.57468110     0.15300
C313        C  0.56872069  0.98835209  0.58281907    -0.17600
C314        C  0.55327611  0.96556688  0.58474593    -0.19800
C315        C  0.54716801  0.95261215  0.61568226     0.20900
C316        C  0.55653547  0.96305258  0.64502073    -0.02700
C317        C  0.57203880  0.98648572  0.64310710    -0.05800
C318        C  0.57823928  0.99881269  0.61180999     0.21100
C319        C  0.58128905  0.99760162  0.67242618     0.19300
C320        C  0.57498775  0.98486313  0.70336001    -0.17300
C321        C  0.55980322  0.96118112  0.70520416    -0.19500
C322        C  0.55047111  0.94999786  0.67619896     0.20800
C323        C  0.53527560  0.92595348  0.67772813    -0.32500
C324        C  0.52589439  0.91529373  0.64846060     0.01500
C325        C  0.53193294  0.92917529  0.61762122    -0.23800
C326        C  0.59373352  0.02166304  0.60998204    -0.28400
C327        C  0.60294533  0.03338894  0.63901945     0.07200
C328        C  0.59655428  0.02139298  0.67025790    -0.27100
H329        H  0.57321536  0.99782462  0.55861055     0.11900
H330        H  0.54618284  0.95786748  0.56198749     0.13000
H331        H  0.58186444  0.99308343  0.72614714     0.12100
H332        H  0.55534525  0.95162169  0.72940342     0.11300
H333        H  0.53071837  0.91572353  0.70163307     0.16700
H334        H  0.52498499  0.92124805  0.59478425     0.12600
H335        H  0.59825822  0.03130431  0.58583058     0.15500
H336        H  0.60345656  0.03049698  0.69274512     0.15300
C337        C  0.34416194  0.83322041  0.94081344    -0.17600
C338        C  0.33503765  0.85890702  0.96017275    -0.19800
C339        C  0.31646262  0.85370481  0.97038281     0.20900
C340        C  0.30694143  0.82232667  0.96078916    -0.02700
C341        C  0.31612503  0.79649564  0.94092220    -0.05800
C342        C  0.33486662  0.80190202  0.93109728     0.21100
C343        C  0.30660995  0.76521943  0.93110419     0.19300
C344        C  0.28801613  0.76002067  0.94138467    -0.17300
C345        C  0.27896407  0.78546563  0.96123292    -0.19500
C346        C  0.28827817  0.81672768  0.97110288     0.20800
C347        C  0.27932752  0.84247317  0.99107129    -0.32500
C348        C  0.28878351  0.87372095  0.00062144     0.01500
C349        C  0.30726478  0.87927797  0.99003497    -0.23800
C350        C  0.34407161  0.77579941  0.91205000    -0.28400
C351        C  0.33478425  0.74436702  0.90218456     0.07200
C352        C  0.31592246  0.73954623  0.91157332    -0.27100
H353        H  0.35854123  0.83785089  0.93346966     0.11900
H354        H  0.34255751  0.88280799  0.96730307     0.13000
H355        H  0.28048230  0.73614973  0.93419388     0.12100
H356        H  0.26464628  0.78067229  0.96887217     0.11300
H357        H  0.26502481  0.83841109  0.99916857     0.16700
H358        H  0.31443877  0.90352054  0.99732075     0.12600
H359        H  0.35854947  0.77991553  0.90501525     0.15500
H360        H  0.30863594  0.71534614  0.90448059     0.15300
C361        C  0.45118509  0.80002573  0.80199493    -0.17600
C362        C  0.46360549  0.82102378  0.78332573    -0.19800
C363        C  0.47119272  0.80816345  0.75341631     0.20900
C364        C  0.46686789  0.77305053  0.74316142    -0.02700
C365        C  0.45420313  0.75201342  0.76182253    -0.05800
C366        C  0.44598491  0.76583279  0.79101230     0.21100
C367        C  0.44908853  0.71782381  0.75033133     0.19300
C368        C  0.45728633  0.70422709  0.72127638    -0.17300
C369        C  0.46977241  0.72499372  0.70283686    -0.19500
C370        C  0.47428808  0.75968116  0.71315514     0.20800
C371        C  0.48496528  0.78204909  0.69273716    -0.32500
C372        C  0.48802578  0.81793647  0.70129970     0.01500
C373        C  0.48188445  0.83047005  0.73241647    -0.23800
C374        C  0.43217788  0.74584381  0.80783907    -0.28400
C375        C  0.42629002  0.71243745  0.79547187     0.07200
C376        C  0.43530645  0.69832783  0.76722450    -0.27100
H377        H  0.44517308  0.81101709  0.82448870     0.11900
H378        H  0.46681781  0.84777023  0.79177357     0.13000
H379        H  0.45360103  0.67792584  0.71225088     0.12100
H380        H  0.47540695  0.71434519  0.67986201     0.11300
H381        H  0.48956448  0.77243187  0.66861918     0.16700
H382        H  0.48392339  0.85827511  0.73883856     0.12600
H383        H  0.42555913  0.75686811  0.82978093     0.15500
H384        H  0.43124425  0.67241474  0.75770551     0.15300
C385        C  0.54727646  0.23211473  0.74575102    -0.17600
C386        C  0.55911190  0.21048933  0.72682767    -0.19800
C387        C  0.57005215  0.22525185  0.70131057     0.20900
C388        C  0.56818116  0.26172679  0.69336788    -0.02700
C389        C  0.55616014  0.28364102  0.71250628    -0.05800
C390        C  0.54612666  0.26885612  0.73943497     0.21100
C391        C  0.55508478  0.32062859  0.70604225     0.19300
C392        C  0.56519504  0.33485559  0.67912998    -0.17300
C393        C  0.57700225  0.31307473  0.66001115    -0.19500
C394        C  0.57905413  0.27666076  0.66754351     0.20800
C395        C  0.59241209  0.25535220  0.65096394    -0.32500
C396        C  0.59528320  0.21952775  0.66050092     0.01500
C397        C  0.58348104  0.20449997  0.68483838    -0.23800
C398        C  0.53610385  0.29131760  0.76089000    -0.28400
C399        C  0.53592971  0.32841333  0.75599154     0.07200
C400        C  0.54488742  0.34287673  0.72783637    -0.27100
H401        H  0.53952028  0.22028599  0.76613159     0.11900
H402        H  0.56021676  0.18242675  0.73295938     0.13000
H403        H  0.56444270  0.36308266  0.67351729     0.12100
H404        H  0.58504720  0.32502031  0.64006404     0.11300
H405        H  0.60119803  0.26713031  0.63193277     0.16700
H406        H  0.58516677  0.17675644  0.69184842     0.12600
H407        H  0.52942799  0.28021134  0.78281668     0.15500
H408        H  0.54507437  0.37154148  0.72433158     0.15300
C409        C  0.44407966  0.48476462  0.75805427    -0.17600
C410        C  0.45959726  0.46200100  0.75611416    -0.19800
C411        C  0.46729553  0.44673822  0.78502479     0.20900
C412        C  0.45893962  0.45389147  0.81613360    -0.02700
C413        C  0.44310855  0.47651566  0.81803622    -0.05800
C414        C  0.43583767  0.49252708  0.78889762     0.21100
C415        C  0.43490377  0.48387700  0.84917862     0.19300
C416        C  0.44239486  0.46824802  0.87808920    -0.17300
C417        C  0.45815144  0.44616157  0.87624030    -0.19500
C418        C  0.46664646  0.43912096  0.84544039     0.20800
C419        C  0.48290397  0.41814605  0.84352705    -0.32500
C420        C  0.49156369  0.41122600  0.81266746     0.01500
C421        C  0.48341159  0.42511171  0.78342705    -0.23800
C422        C  0.42088247  0.51686881  0.79122401    -0.28400
C423        C  0.41295629  0.52516541  0.82231205     0.07200
C424        C  0.41977850  0.50768967  0.85104886    -0.27100
H425        H  0.43866635  0.49667891  0.73539706     0.11900
H426        H  0.46577628  0.45681289  0.73201681     0.13000
H427        H  0.43627305  0.47362890  0.90222060     0.12100
H428        H  0.46383386  0.43491143  0.89899901     0.11300
H429        H  0.48887032  0.40726043  0.86622039     0.16700
H430        H  0.48993239  0.42003489  0.75958043     0.12600
H431        H  0.41576919  0.53008260  0.76897009     0.15500
H432        H  0.41395349  0.51396035  0.87524406     0.15300
C433        C  0.34475536  0.62542957  0.64148424    -0.17600
C434        C  0.33445889  0.62029445  0.61209352    -0.19800
C435        C  0.31497784  0.62519517  0.61171267     0.20900
C436        C  0.30594848  0.63704283  0.64095132    -0.02700
C437        C  0.31635191  0.64217806  0.67065603    -0.05800
C438        C  0.33578153  0.63550268  0.67112062     0.21100
C439        C  0.30714174  0.65222554  0.70025119     0.19300
C440        C  0.28777345  0.65850138  0.69959155    -0.17300
C441        C  0.27746962  0.65314519  0.67032373    -0.19500
C442        C  0.28636037  0.64164466  0.64110646     0.20800
C443        C  0.27586758  0.63225883  0.61283561    -0.32500
C444        C  0.28460015  0.61791504  0.58445290     0.01500
C445        C  0.30424152  0.61601475  0.58346684    -0.23800
C446        C  0.34571372  0.63742418  0.70145017    -0.28400
C447        C  0.33645793  0.64564248  0.73151069     0.07200
C448        C  0.31724845  0.65420178  0.73030318    -0.27100
H449        H  0.35969092  0.62043734  0.64126041     0.11900
H450        H  0.34166309  0.61135467  0.58992291     0.13000
H451        H  0.28047889  0.66643218  0.72201632     0.12100
H452        H  0.26243901  0.65692639  0.67083186     0.11300
H453        H  0.26070855  0.63335395  0.61383579     0.16700
H454        H  0.31101600  0.60418371  0.56205716     0.12600
H455        H  0.36052411  0.63118073  0.70179534     0.15500
H456        H  0.30992215  0.66095537  0.75303540     0.15300
C457        C  0.34610899  0.85978203  0.14288176    -0.17600
C458        C  0.33709444  0.86560318  0.11233058    -0.19800
C459        C  0.31748386  0.86582692  0.11031257     0.20900
C460        C  0.30690380  0.85846906  0.13924277    -0.02700
C461        C  0.31601545  0.85291974  0.17019728    -0.05800
C462        C  0.33569605  0.85428331  0.17206765     0.21100
C463        C  0.30541395  0.84760165  0.19945149     0.19300
C464        C  0.28580962  0.84640117  0.19721323    -0.17300
C465        C  0.27679380  0.85188881  0.16660707    -0.19500
C466        C  0.28720812  0.85872566  0.13765765     0.20800
C467        C  0.27828466  0.86837259  0.10778343    -0.32500
C468        C  0.28871150  0.87882309  0.07963108     0.01500
C469        C  0.30830901  0.87584302  0.08058924    -0.23800
C470        C  0.34462179  0.85140269  0.20318117    -0.28400
C471        C  0.33419856  0.84749809  0.23277802     0.07200
C472        C  0.31455321  0.84481151  0.23050084    -0.27100
H473        H  0.36125742  0.86063488  0.14384011     0.11900
H474        H  0.34547283  0.87099311  0.09045317     0.13000
H475        H  0.27741625  0.84213544  0.21930038     0.12100
H476        H  0.26163446  0.85192234  0.16578990     0.11300
H477        H  0.26316623  0.87093955  0.10728210     0.16700
H478        H  0.31646615  0.88461704  0.05942345     0.12600
H479        H  0.35974825  0.85316140  0.20435624     0.15500
H480        H  0.30632246  0.84161319  0.25294612     0.15300
C481        C  0.45642131  0.91517915  0.51911270    -0.17600
C482        C  0.44362407  0.91345832  0.49278771    -0.19800
C483        C  0.43295493  0.88253942  0.48756498     0.20900
C484        C  0.43516834  0.85300407  0.50898974    -0.02700
C485        C  0.44790116  0.85492508  0.53581588    -0.05800
C486        C  0.45862780  0.88612721  0.54080649     0.21100
C487        C  0.44983809  0.82570660  0.55768122     0.19300
C488        C  0.43923556  0.79469513  0.55232261    -0.17300
C489        C  0.42683460  0.79256811  0.52538625    -0.19500
C490        C  0.42469270  0.82155728  0.50358570     0.20800
C491        C  0.41234066  0.81966362  0.47641284    -0.32500
C492        C  0.41000303  0.84916232  0.45520927     0.01500
C493        C  0.42022223  0.88056745  0.46111563    -0.23800
C494        C  0.47119962  0.88791540  0.56762286    -0.28400
C495        C  0.47289829  0.85920857  0.58995031     0.07200
C496        C  0.46222940  0.82811758  0.58467242    -0.27100
H497        H  0.46451783  0.93932844  0.52262498     0.11900
H498        H  0.44211077  0.93629222  0.47643301     0.13000
H499        H  0.44056920  0.77203670  0.56893405     0.12100
H500        H  0.41887239  0.76828779  0.52166845     0.11300
H501        H  0.40445476  0.79542624  0.47188456     0.16700
H502        H  0.41864125  0.90320313  0.44450194     0.12600
H503        H  0.47927396  0.91202598  0.57161810     0.15500
H504        H  0.46353590  0.80572873  0.60163041     0.15300
C505        C  0.27651826  0.71336402  0.47322433    -0.17600
C506        C  0.28571269  0.73780388  0.45253432    -0.19800
C507        C  0.30295095  0.72912487  0.43791769     0.20900
C508        C  0.31098797  0.69538063  0.44427918    -0.02700
C509        C  0.30158092  0.67048381  0.46488866    -0.05800
C510        C  0.28429469  0.67964786  0.47951793     0.21100
C511        C  0.30948722  0.63652579  0.47094037     0.19300
C512        C  0.32682156  0.62799798  0.45661209    -0.17300
C513        C  0.33625861  0.65283922  0.43662137    -0.19500
C514        C  0.32847006  0.68660087  0.43026564     0.20800
C515        C  0.33792590  0.71185414  0.41047669    -0.32500
C516        C  0.33001189  0.74565034  0.40389706     0.01500
C517        C  0.31237724  0.75381178  0.41747278    -0.23800
C518        C  0.27511845  0.65497364  0.50019248    -0.28400
C519        C  0.28282381  0.62112095  0.50607528     0.07200
C520        C  0.29993972  0.61187890  0.49127978    -0.27100
H521        H  0.26326663  0.72084507  0.48427304     0.11900
H522        H  0.27937335  0.76360290  0.44809884     0.13000
H523        H  0.33314241  0.60214427  0.46101431     0.12100
H524        H  0.34967678  0.64560837  0.42608359     0.11300
H525        H  0.35152311  0.70523588  0.40026901     0.16700
H526        H  0.30627837  0.77984378  0.41306382     0.12600
H527        H  0.26189419  0.66186593  0.51168740     0.15500
H528        H  0.30583517  0.58571428  0.49599138     0.15300
C529        C  0.57039562  0.05903476  0.43705422    -0.17600
C530        C  0.58295896  0.06217858  0.46365531    -0.19800
C531        C  0.59277578  0.09411441  0.46892117     0.20900
C532        C  0.58999389  0.12317182  0.44714372    -0.02700
C533        C  0.57750665  0.11982354  0.42002605    -0.05800
C534        C  0.56755925  0.08766636  0.41509480     0.21100
C535        C  0.57497228  0.14864231  0.39790027     0.19300
C536        C  0.58474951  0.18063515  0.40323491    -0.17300
C537        C  0.59686188  0.18417539  0.43046833    -0.19500
C538        C  0.59956793  0.15564067  0.45259911     0.20800
C539        C  0.61148772  0.15908746  0.48028388    -0.32500
C540        C  0.61429894  0.13017213  0.50202567     0.01500
C541        C  0.60510043  0.09765455  0.49589259    -0.23800
C542        C  0.55507998  0.08460033  0.38816157    -0.28400
C543        C  0.55277452  0.11297200  0.36565081     0.07200
C544        C  0.56276662  0.14491563  0.37075339    -0.27100
H545        H  0.56293176  0.03415249  0.43360148     0.11900
H546        H  0.58490483  0.03967674  0.48026716     0.13000
H547        H  0.58294828  0.20301091  0.38642807     0.12100
H548        H  0.60412348  0.20923392  0.43420857     0.11300
H549        H  0.61855023  0.18419324  0.48496190     0.16700
H550        H  0.60700357  0.07543873  0.51288943     0.12600
H551        H  0.54756466  0.05984236  0.38419423     0.15500
H552        H  0.56098630  0.16702335  0.35360351     0.15300
C553        C  0.44635999  0.01056916  0.37273736    -0.17600
C554        C  0.46245723  0.03166292  0.37099950    -0.19800
C555        C  0.47195820  0.03588043  0.34073154     0.20900
C556        C  0.46504995  0.01901950  0.31178788    -0.02700
C557        C  0.44888678  0.99727966  0.31363961    -0.05800
C558        C  0.43957280  0.99305013  0.34428535     0.21100
C559        C  0.44226372  0.97931046  0.28503951     0.19300
C560        C  0.45164494  0.98411257  0.25464693    -0.17300
C561        C  0.46749073  0.00613804  0.25268282    -0.19500
C562        C  0.47440159  0.02353444  0.28115265     0.20800
C563        C  0.49055053  0.04508743  0.27964876    -0.32500
C564        C  0.49770670  0.06136127  0.30862128     0.01500
C565        C  0.48828900  0.05652678  0.33901064    -0.23800
C566        C  0.42392028  0.97063482  0.34630680    -0.28400
C567        C  0.41754096  0.95136831  0.31834148     0.07200
C568        C  0.42669006  0.95627839  0.28758495    -0.27100
H569        H  0.43936320  0.00754689  0.39646541     0.11900
H570        H  0.46753141  0.04456413  0.39342284     0.13000
H571        H  0.44678984  0.97064883  0.23237443     0.12100
H572        H  0.47446554  0.00924746  0.22894625     0.11300
H573        H  0.49774113  0.04863143  0.25615549     0.16700
H574        H  0.49353951  0.06932162  0.36137719     0.12600
H575        H  0.41716460  0.96712955  0.37021204     0.15500
H576        H  0.42197260  0.94164504  0.26586356     0.15300
C577        C  0.68301456  0.09197130  0.84561550    -0.17600
C578        C  0.67359527  0.09695480  0.81539107    -0.19800
C579        C  0.68073519  0.12033289  0.79123172     0.20900
C580        C  0.69689790  0.14055161  0.79839402    -0.02700
C581        C  0.70621671  0.13605674  0.82930889    -0.05800
C582        C  0.69959977  0.11065337  0.85243131     0.21100
C583        C  0.72292645  0.15485593  0.83593134     0.19300
C584        C  0.72951139  0.17960352  0.81239049    -0.17300
C585        C  0.72034778  0.18387959  0.78168024    -0.19500
C586        C  0.70436723  0.16361570  0.77396302     0.20800
C587        C  0.69620074  0.16478041  0.74190597    -0.32500
C588        C  0.68044824  0.14361630  0.73423488     0.01500
C589        C  0.67247919  0.12247588  0.75953114    -0.23800
C590        C  0.71048821  0.10203997  0.88047623    -0.28400
C591        C  0.72779963  0.11878455  0.88614046     0.07200
C592        C  0.73352160  0.14633785  0.86453423    -0.27100
H593        H  0.67766832  0.07255606  0.86318806     0.11900
H594        H  0.66111959  0.08141051  0.81037369     0.13000
H595        H  0.74221894  0.19455610  0.81712746     0.12100
H596        H  0.72614538  0.20216059  0.76351149     0.11300
H597        H  0.70225578  0.18165746  0.72282775     0.16700
H598        H  0.66031599  0.10619369  0.75404790     0.12600
H599        H  0.70644733  0.07954992  0.89582319     0.15500
H600        H  0.74713625  0.15852960  0.86816841     0.15300
C601        C  0.72558151  0.32158084  0.27797117    -0.17600
C602        C  0.73453598  0.32693169  0.30863703    -0.19800
C603        C  0.72596970  0.34727991  0.33366846     0.20900
C604        C  0.70788696  0.36122555  0.32821500    -0.02700
C605        C  0.69879747  0.35563182  0.29731515    -0.05800
C606        C  0.70785519  0.33634607  0.27180542     0.21100
C607        C  0.68100696  0.37066567  0.29147868     0.19300
C608        C  0.67229313  0.39051326  0.31668634    -0.17300
C609        C  0.68144144  0.39663469  0.34699755    -0.19500
C610        C  0.69936359  0.38261222  0.35281654     0.20800
C611        C  0.70945381  0.39181010  0.38164851    -0.32500
C612        C  0.72783025  0.37945772  0.38647940     0.01500
C613        C  0.73569903  0.35609551  0.36298769    -0.23800
C614        C  0.69929860  0.33314205  0.24031707    -0.28400
C615        C  0.68169452  0.34867734  0.23411735     0.07200
C616        C  0.67250513  0.36669658  0.26017921    -0.27100
H617        H  0.73271580  0.30654111  0.25879600     0.11900
H618        H  0.74842796  0.31605675  0.31239516     0.13000
H619        H  0.65860668  0.40219229  0.31260278     0.12100
H620        H  0.67467623  0.41306108  0.36559466     0.11300
H621        H  0.70369590  0.41137893  0.39858960     0.16700
H622        H  0.75011451  0.34763969  0.36604851     0.12600
H623        H  0.70644091  0.31899304  0.22055080     0.15500
H624        H  0.65897086  0.37890323  0.25576941     0.15300
C625        C  0.56474302  0.42451217  0.94012434    -0.17600
C626        C  0.57745438  0.42307675  0.96673280    -0.19800
C627        C  0.58797138  0.39208853  0.97277649     0.20900
C628        C  0.58560088  0.36221141  0.95183577    -0.02700
C629        C  0.57298544  0.36384684  0.92470674    -0.05800
C630        C  0.56244579  0.39510714  0.91885461     0.21100
C631        C  0.57099734  0.33421883  0.90337153     0.19300
C632        C  0.58128307  0.30304762  0.90966515    -0.17300
C633        C  0.59350334  0.30120234  0.93685391    -0.19500
C634        C  0.59581083  0.33063891  0.95799963     0.20800
C635        C  0.60805189  0.32893002  0.98531032    -0.32500
C636        C  0.61058368  0.35860958  0.00619239     0.01500
C637        C  0.60065321  0.39026559  0.99955513    -0.23800
C638        C  0.54999407  0.39648562  0.89163792    -0.28400
C639        C  0.54836542  0.36732534  0.86974650     0.07200
C640        C  0.55887910  0.33629871  0.87594503    -0.27100
H641        H  0.55679768  0.44873750  0.93604230     0.11900
H642        H  0.57901759  0.44620226  0.98266591     0.13000
H643        H  0.57985920  0.28003884  0.89355320     0.12100
H644        H  0.60122731  0.27677506  0.94125069     0.11300
H645        H  0.61566043  0.30447518  0.99032000     0.16700
H646        H  0.60234550  0.41306869  0.01587662     0.12600
H647        H  0.54200482  0.42055075  0.88692544     0.15500
H648        H  0.55756730  0.31359101  0.85940477     0.15300
C649        C  0.68627052  0.14553394  0.98453716    -0.17600
C650        C  0.67682808  0.17073603  0.00386398    -0.19800
C651        C  0.68681936  0.19437711  0.02435842     0.20900
C652        C  0.70650261  0.19228113  0.02581825    -0.02700
C653        C  0.71605873  0.16691728  0.00613845    -0.05800
C654        C  0.70587662  0.14368516  0.98521342     0.21100
C655        C  0.73578979  0.16531231  0.00686123     0.19300
C656        C  0.74573508  0.18850154  0.02789149    -0.17300
C657        C  0.73625765  0.21355413  0.04749761    -0.19500
C658        C  0.71664709  0.21595673  0.04639089     0.20800
C659        C  0.70704041  0.24198870  0.06497611    -0.32500
C660        C  0.68739361  0.24473007  0.06312835     0.01500
C661        C  0.67744946  0.22042720  0.04295499    -0.23800
C662        C  0.71546955  0.11969220  0.96462624    -0.28400
C663        C  0.73511042  0.11913626  0.96391934     0.07200
C664        C  0.74518808  0.14135329  0.98576716    -0.27100
H665        H  0.67824874  0.12788196  0.96862044     0.11900
H666        H  0.66169231  0.17197331  0.00251872     0.13000
H667        H  0.76088789  0.18759451  0.02885391     0.12100
H668        H  0.74429065  0.23138292  0.06319914     0.11300
H669        H  0.71488007  0.26047882  0.08033321     0.16700
H670        H  0.66233123  0.22208177  0.04119522     0.12600
H671        H  0.70765546  0.10179224  0.94882754     0.15500
H672        H  0.76035312  0.14099885  0.98523727     0.15300
C673        C  0.56197908  0.26903079  0.23110506    -0.17600
C674        C  0.54986436  0.24635242  0.24824673    -0.19800
C675        C  0.54869958  0.21017759  0.23971017     0.20900
C676        C  0.55918036  0.19692975  0.21267633    -0.02700
C677        C  0.57141498  0.21989486  0.19530546    -0.05800
C678        C  0.57308625  0.25586768  0.20513527     0.21100
C679        C  0.58257039  0.20652514  0.16917496     0.19300
C680        C  0.58089279  0.17051800  0.15998954    -0.17300
C681        C  0.56891521  0.14760621  0.17750017    -0.19500
C682        C  0.55829174  0.16035637  0.20434910     0.20800
C683        C  0.54787664  0.13690904  0.22452028    -0.32500
C684        C  0.53857234  0.14985680  0.25280981     0.01500
C685        C  0.53832980  0.18658281  0.25931121    -0.23800
C686        C  0.58627846  0.27785152  0.18966275    -0.28400
C687        C  0.59790706  0.26459698  0.16433901     0.07200
C688        C  0.59563957  0.22910039  0.15357340    -0.27100
H689        H  0.56303517  0.29665399  0.23875332     0.11900
H690        H  0.54186485  0.25686580  0.26893101     0.13000
H691        H  0.58925853  0.15981261  0.13987859     0.12100
H692        H  0.56836990  0.11968848  0.17064604     0.11300
H693        H  0.54837085  0.10842713  0.21999633     0.16700
H694        H  0.53137769  0.19632865  0.28151607     0.12600
H695        H  0.58767683  0.30529585  0.19775741     0.15500
H696        H  0.60447768  0.21871305  0.13394859     0.15300
C697        C  0.44859374  0.56864533  0.98746222    -0.17600
C698        C  0.46042939  0.56530798  0.01518029    -0.19800
C699        C  0.45905740  0.58924509  0.04193670     0.20900
C700        C  0.44563066  0.61688869  0.04058139    -0.02700
C701        C  0.43390397  0.62060710  0.01243343    -0.05800
C702        C  0.43528432  0.59617302  0.98586990     0.21100
C703        C  0.42080464  0.64882016  0.01089791     0.19300
C704        C  0.41928474  0.67254703  0.03770060    -0.17300
C705        C  0.43065876  0.66848766  0.06578456    -0.19500
C706        C  0.44390452  0.64091010  0.06734252     0.20800
C707        C  0.45547423  0.63712135  0.09523101    -0.32500
C708        C  0.46904211  0.60991763  0.09688150     0.01500
C709        C  0.47080730  0.58607741  0.07001160    -0.23800
C710        C  0.42332346  0.59979538  0.95825584    -0.28400
C711        C  0.41046121  0.62815444  0.95651012     0.07200
C712        C  0.40941411  0.65277805  0.98265390    -0.27100
H713        H  0.44988584  0.54973369  0.96720800     0.11900
H714        H  0.47061406  0.54391123  0.01574016     0.13000
H715        H  0.40924855  0.69419037  0.03699192     0.12100
H716        H  0.42917570  0.68709638  0.08623748     0.11300
H717        H  0.45398708  0.65582655  0.11562113     0.16700
H718        H  0.48110394  0.56488404  0.07112072     0.12600
H719        H  0.42423578  0.58101140  0.93779579     0.15500
H720        H  0.39946056  0.67455669  0.98123513     0.15300
C721        C  0.46181016  0.76446323  0.24347072    -0.17600
C722        C  0.47430162  0.74129251  0.22771484    -0.19800
C723        C  0.47186312  0.70423619  0.23001275     0.20900
C724        C  0.45711682  0.69031905  0.24944255    -0.02700
C725        C  0.44458584  0.71370621  0.26552743    -0.05800
C726        C  0.44673123  0.75093729  0.26192406     0.21100
C727        C  0.42953721  0.69981850  0.28421683     0.19300
C728        C  0.42728440  0.66275054  0.28696111    -0.17300
C729        C  0.43949106  0.63958129  0.27050137    -0.19500
C730        C  0.45429285  0.65308890  0.25135749     0.20800
C731        C  0.46554507  0.63021000  0.23236308    -0.32500
C732        C  0.47951353  0.64415526  0.21161188     0.01500
C733        C  0.48308258  0.68095265  0.21143812    -0.23800
C734        C  0.43354173  0.77395148  0.27623880    -0.28400
C735        C  0.41846907  0.76026174  0.29471481     0.07200
C736        C  0.41675007  0.72322392  0.29914286    -0.27100
H737        H  0.46373207  0.79296667  0.24069333     0.11900
H738        H  0.48556478  0.75238930  0.21292092     0.13000
H739        H  0.41580799  0.65167182  0.30120517     0.12100
H740        H  0.43712371  0.61109691  0.27219882     0.11300
H741        H  0.46249246  0.60188916  0.23163772     0.16700
H742        H  0.49352631  0.69165808  0.19458523     0.12600
H743        H  0.43503706  0.80254141  0.27316633     0.15500
H744        H  0.40512546  0.71261743  0.31335422     0.15300
C745        C  0.56783974  0.48050132  0.20771733    -0.17600
C746        C  0.55194254  0.50226883  0.20946071    -0.19800
C747        C  0.54715183  0.52477027  0.18279175     0.20900
C748        C  0.55879735  0.52604838  0.15446508    -0.02700
C749        C  0.57501262  0.50456065  0.15296963    -0.05800
C750        C  0.57934821  0.48112965  0.17942486     0.21100
C751        C  0.58651599  0.50566495  0.12449363     0.19300
C752        C  0.58198646  0.52872986  0.09813851    -0.17300
C753        C  0.56579832  0.54960463  0.09940598    -0.19500
C754        C  0.55397768  0.54805580  0.12721182     0.20800
C755        C  0.53725628  0.56761319  0.12795637    -0.32500
C756        C  0.52551782  0.56626499  0.15593968     0.01500
C757        C  0.53073094  0.54540186  0.18357989    -0.23800
C758        C  0.59463929  0.45775035  0.17650576    -0.28400
C759        C  0.60565708  0.45753762  0.14744633     0.07200
C760        C  0.60186658  0.48257212  0.12214436    -0.27100
H761        H  0.57097583  0.46276578  0.22831077     0.11900
H762        H  0.54318038  0.50096665  0.23141070     0.13000
H763        H  0.59071887  0.52995785  0.07614067     0.12100
H764        H  0.56238387  0.56659844  0.07841711     0.11300
H765        H  0.53337852  0.58404176  0.10679759     0.16700
H766        H  0.52166973  0.54429063  0.20517325     0.12600
H767        H  0.59744762  0.43872035  0.19623804     0.15500
H768        H  0.61024119  0.48281846  0.09967012     0.15300
C769        C  0.30142775  0.43986216  0.94605937    -0.17600
C770        C  0.31390765  0.46063830  0.92747140    -0.19800
C771        C  0.30914874  0.49551320  0.91792124     0.20900
C772        C  0.29128138  0.50901689  0.92586461    -0.02700
C773        C  0.27866445  0.48802021  0.94469426    -0.05800
C774        C  0.28394369  0.45357249  0.95545751     0.21100
C775        C  0.26129926  0.50239263  0.95458111     0.19300
C776        C  0.25632067  0.53689030  0.94418003    -0.17300
C777        C  0.26870797  0.55749947  0.92519234    -0.19500
C778        C  0.28638156  0.54411110  0.91646702     0.20800
C779        C  0.29951849  0.56569905  0.89982273    -0.32500
C780        C  0.31770149  0.55300233  0.89331923     0.01500
C781        C  0.32222017  0.51758152  0.90183886    -0.23800
C782        C  0.27234501  0.43464781  0.97756771    -0.28400
C783        C  0.25572817  0.44998918  0.98950537     0.07200
C784        C  0.24991298  0.48317461  0.97678368    -0.27100
H785        H  0.30571252  0.41349130  0.95403961     0.11900
H786        H  0.32752751  0.44975923  0.92138390     0.13000
H787        H  0.24304509  0.54836179  0.95155312     0.12100
H788        H  0.26468188  0.58433115  0.91819558     0.11300
H789        H  0.29590783  0.59294200  0.89346783     0.16700
H790        H  0.33611837  0.50742370  0.89664355     0.12600
H791        H  0.27723154  0.40977235  0.98825039     0.15500
H792        H  0.23740277  0.49553621  0.98674185     0.15300
C793        C  0.17411037  0.33362250  0.95736570    -0.17600
C794        C  0.18251696  0.36012517  0.97683831    -0.19800
C795        C  0.20194304  0.36019401  0.98202058     0.20900
C796        C  0.21304973  0.33358002  0.96697480    -0.02700
C797        C  0.20456200  0.30700686  0.94694015    -0.05800
C798        C  0.18499173  0.30687787  0.94245009     0.21100
C799        C  0.21561083  0.28034479  0.93182020     0.19300
C800        C  0.23509093  0.28079754  0.93669617    -0.17300
C801        C  0.24348521  0.30694106  0.95676124    -0.19500
C802        C  0.23259639  0.33330491  0.97222617     0.20800
C803        C  0.24081328  0.35905917  0.99320657    -0.32500
C804        C  0.22973737  0.38519139  0.00865608     0.01500
C805        C  0.21042342  0.38612662  0.00228047    -0.23800
C806        C  0.17657318  0.27975850  0.92355194    -0.28400
C807        C  0.18735390  0.25252685  0.90874253     0.07200
C808        C  0.20696726  0.25340383  0.91263319    -0.27100
H809        H  0.15905125  0.33393484  0.95411350     0.11900
H810        H  0.17378249  0.38033878  0.98820141     0.13000
H811        H  0.24383178  0.26066385  0.92528677     0.12100
H812        H  0.25851731  0.30637875  0.96036580     0.11300
H813        H  0.25573402  0.35853432  0.99800512     0.16700
H814        H  0.20203047  0.40707960  0.01323373     0.12600
H815        H  0.16148021  0.27971450  0.92070713     0.15500
H816        H  0.21544497  0.23265447  0.90152925     0.15300
C817        C  0.21566068  0.93620436  0.93773244    -0.17600
C818        C  0.20352798  0.95969797  0.92128499    -0.19800
C819        C  0.20977254  0.99344214  0.91094091     0.20900
C820        C  0.22869952  0.00288169  0.91565736    -0.02700
C821        C  0.24097526  0.97913745  0.93242016    -0.05800
C822        C  0.23426320  0.94605092  0.94425856     0.21100
C823        C  0.25951728  0.98965675  0.93957004     0.19300
C824        C  0.26599400  0.02271051  0.92774967    -0.17300
C825        C  0.25392623  0.04597545  0.91069740    -0.19500
C826        C  0.23508062  0.03680914  0.90539885     0.20800
C827        C  0.22233259  0.06152866  0.89153851    -0.32500
C828        C  0.20316784  0.05300958  0.88845318     0.01500
C829        C  0.19720955  0.01842590  0.89740048    -0.23800
C830        C  0.24563758  0.92498065  0.96509064    -0.28400
C831        C  0.26329026  0.93727346  0.97548759     0.07200
C832        C  0.27059044  0.96855033  0.96100265    -0.27100
H833        H  0.21026535  0.91092788  0.94658665     0.11900
H834        H  0.18905983  0.95190189  0.91764151     0.13000
H835        H  0.28022232  0.03118385  0.93279059     0.12100
H836        H  0.25916096  0.07173035  0.90279041     0.11300
H837        H  0.22716720  0.08791110  0.88466540     0.16700
H838        H  0.18258487  0.01120246  0.89479328     0.12600
H839        H  0.23977144  0.90145630  0.97682988     0.15500
H840        H  0.28399712  0.97860536  0.96955492     0.15300
C841        C  0.07426357  0.98717627  0.87853570    -0.17600
C842        C  0.05952461  0.96288571  0.87640274    -0.19800
C843        C  0.05193129  0.95370389  0.84534190     0.20900
C844        C  0.05918125  0.96915130  0.81606897    -0.02700
C845        C  0.07405448  0.99397223  0.81824800    -0.05800
C846        C  0.08164239  0.00272434  0.84964971     0.21100
C847        C  0.08126978  0.01007390  0.78917722     0.19300
C848        C  0.07353163  0.00084523  0.75811973    -0.17300
C849        C  0.05888438  0.97591149  0.75593153    -0.19500
C850        C  0.05154770  0.95989022  0.78476894     0.20800
C851        C  0.03664158  0.93512646  0.78306418    -0.32500
C852        C  0.02916131  0.92009552  0.81241208     0.01500
C853        C  0.03709757  0.92950056  0.84329930    -0.23800
C854        C  0.09646516  0.02694070  0.85183550    -0.28400
C855        C  0.10385837  0.04329026  0.82319983     0.07200
C856        C  0.09603402  0.03503182  0.79183033    -0.27100
H857        H  0.07989833  0.99381341  0.90283456     0.11900
H858        H  0.05405288  0.95126918  0.89909349     0.13000
H859        H  0.07884003  0.01284805  0.73548548     0.12100
H860        H  0.05323016  0.96928765  0.73164346     0.11300
H861        H  0.03065975  0.92815788  0.75910336     0.16700
H862        H  0.03172021  0.91792432  0.86609054     0.12600
H863        H  0.10202988  0.03361335  0.87619608     0.15500
H864        H  0.10148639  0.04775338  0.76963619     0.15300
C865        C  0.70478906  0.95090990  0.55343697    -0.17600
C866        C  0.71586000  0.92731982  0.53494465    -0.19800
C867        C  0.73184504  0.93957686  0.51819632     0.20900
C868        C  0.73728535  0.97563585  0.52179659    -0.02700
C869        C  0.72607230  0.99951239  0.54047490    -0.05800
C870        C  0.70948017  0.98721650  0.55559147     0.21100
C871        C  0.73092153  0.03599938  0.54250105     0.19300
C872        C  0.74727597  0.04800057  0.52669957    -0.17300
C873        C  0.75828656  0.02445015  0.50803942    -0.19500
C874        C  0.75319505  0.98841804  0.50485760     0.20800
C875        C  0.76275313  0.96578598  0.48280177    -0.32500
C876        C  0.75631069  0.93091131  0.47657381     0.01500
C877        C  0.74148068  0.91732489  0.49569831    -0.23800
C878        C  0.69747056  0.01163878  0.57135299    -0.28400
C879        C  0.70188726  0.04822841  0.57273463     0.07200
C880        C  0.71893732  0.06004478  0.55904046    -0.27100
H881        H  0.69219395  0.94092966  0.56519885     0.11900
H882        H  0.71150916  0.89976160  0.53270204     0.13000
H883        H  0.75126014  0.07583771  0.52794699     0.12100
H884        H  0.77046226  0.03472665  0.49514725     0.11300
H885        H  0.77393096  0.97656783  0.46757445     0.16700
H886        H  0.73618923  0.89082709  0.49043707     0.12600
H887        H  0.68440798  0.00229802  0.58193402     0.15500
H888        H  0.72237036  0.08819016  0.55968669     0.15300
C889        C  0.77288829  0.77937420  0.50345545    -0.17600
C890        C  0.78265734  0.75608071  0.52467974    -0.19800
C891        C  0.80131826  0.76312144  0.53373260     0.20900
C892        C  0.81007843  0.79424018  0.52149043    -0.02700
C893        C  0.80018922  0.81786148  0.50022863    -0.05800
C894        C  0.78154287  0.81026280  0.49093600     0.21100
C895        C  0.80904250  0.84895275  0.48806367     0.19300
C896        C  0.82761332  0.85614217  0.49722024    -0.17300
C897        C  0.83743317  0.83262618  0.51792413    -0.19500
C898        C  0.82883998  0.80157642  0.53007211     0.20800
C899        C  0.83885367  0.77744907  0.55006755    -0.32500
C900        C  0.83047037  0.74589721  0.56192911     0.01500
C901        C  0.81150766  0.73927683  0.55412734    -0.23800
C902        C  0.77202686  0.83359575  0.46914309    -0.28400
C903        C  0.78090246  0.86441644  0.45681671     0.07200
C904        C  0.79925433  0.87220602  0.46678676    -0.27100
H905        H  0.75856318  0.77310516  0.49669283     0.11900
H906        H  0.77566965  0.73236769  0.53375322     0.13000
H907        H  0.83461608  0.87983070  0.48810433     0.12100
H908        H  0.85183807  0.83865402  0.52429512     0.11300
H909        H  0.85339171  0.78299576  0.55591795     0.16700
H910        H  0.80491401  0.71497797  0.56280541     0.12600
H911        H  0.75774976  0.82790898  0.46163682     0.15500
H912        H  0.80588986  0.89630338  0.45772829     0.15300
C913        C  0.96651798  0.71743660  0.71607601    -0.17600
C914        C  0.97879386  0.73812639  0.73510488    -0.19800
C915        C  0.97793156  0.77546573  0.73373661     0.20900
C916        C  0.96534796  0.79216706  0.71146964    -0.02700
C917        C  0.95285898  0.77122909  0.69234870    -0.05800
C918        C  0.95311956  0.73377283  0.69551394     0.21100
C919        C  0.93946101  0.78780073  0.67153228     0.19300
C920        C  0.93937140  0.82515548  0.66877077    -0.17300
C921        C  0.95170201  0.84594041  0.68784345    -0.19500
C922        C  0.96440553  0.82975286  0.70993589     0.20800
C923        C  0.97526394  0.85030278  0.73209056    -0.32500
C924        C  0.98673430  0.83355556  0.75593138     0.03100
C925        C  0.98849326  0.79629867  0.75584356    -0.23800
C926        C  0.93941760  0.71333197  0.67942721    -0.28400
C927        C  0.92531943  0.72963833  0.66019374     0.07200
C928        C  0.92587207  0.76682136  0.65521099    -0.27100
H929        H  0.96703378  0.68866593  0.71841093     0.11900
H930        H  0.98850952  0.72491183  0.75181447     0.13000
H931        H  0.92932389  0.83837741  0.65271399     0.12100
H932        H  0.95086182  0.87473524  0.68614148     0.11300
H933        H  0.97366637  0.87905178  0.73261342     0.16700
H934        H  0.99715892  0.78345766  0.77456263     0.12600
H935        H  0.93941630  0.68462148  0.68268200     0.15500
H936        H  0.91521376  0.77955216  0.64006110     0.15300
C937        C  0.81312298  0.43793199  0.51271516    -0.17600
C938        C  0.82502058  0.46223543  0.52857735    -0.19800
C939        C  0.81809695  0.49486920  0.54039393     0.20900
C940        C  0.79883956  0.50251165  0.53743473    -0.02700
C941        C  0.78680034  0.47793664  0.52134853    -0.05800
C942        C  0.79409015  0.44587557  0.50829010     0.21100
C943        C  0.76775475  0.48647237  0.51646574     0.19300
C944        C  0.76073808  0.51866265  0.52922050    -0.17300
C945        C  0.77261086  0.54278051  0.54557044    -0.19500
C946        C  0.79176874  0.53530103  0.54926481     0.20800
C947        C  0.80405536  0.56035952  0.56372561    -0.32500
C948        C  0.82339608  0.55330682  0.56585469     0.01500
C949        C  0.83019880  0.52029645  0.55434244    -0.23800
C950        C  0.78265094  0.42385111  0.48858813    -0.28400
C951        C  0.76417987  0.43386794  0.48109034     0.07200
C952        C  0.75651342  0.46415819  0.49655967    -0.27100
H953        H  0.81894488  0.41345144  0.50289674     0.11900
H954        H  0.83976124  0.45585119  0.53088540     0.13000
H955        H  0.74615214  0.52567806  0.52571866     0.12100
H956        H  0.76689511  0.56771880  0.55455026     0.11300
H957        H  0.79866221  0.58569479  0.57240599     0.16700
H958        H  0.84502322  0.51437439  0.55610154     0.12600
H959        H  0.78873151  0.40113857  0.47590750     0.15500
H960        H  0.74244569  0.47250632  0.48999877     0.15300
C961        C  0.05856098  0.21572154  0.74837998    -0.17600
C962        C  0.04595888  0.23610055  0.72982638    -0.19800
C963        C  0.04539764  0.27323748  0.73360542     0.20900
C964        C  0.05689045  0.28992726  0.75762694    -0.02700
C965        C  0.06962087  0.26926415  0.77648881    -0.05800
C966        C  0.07075958  0.23218265  0.77103532     0.21100
C967        C  0.08184825  0.28586332  0.79944469     0.19300
C968        C  0.08060038  0.32290797  0.80425685    -0.17300
C969        C  0.06810185  0.34349592  0.78524560    -0.19500
C970        C  0.05651245  0.32739236  0.76123591     0.20800
C971        C  0.04555420  0.34804123  0.73918520    -0.32500
C972        C  0.03520626  0.33139013  0.71369583     0.01500
C973        C  0.03456206  0.29408129  0.71206042    -0.23800
C974        C  0.08460947  0.21230066  0.78714886    -0.28400
C975        C  0.09744037  0.22868709  0.80883465     0.07200
C976        C  0.09559128  0.26530320  0.81592472    -0.27100
H977        H  0.05918686  0.18720575  0.74421583     0.11900
H978        H  0.03713699  0.22293886  0.71160051     0.13000
H979        H  0.08973829  0.33614220  0.82192428     0.12100
H980        H  0.06793006  0.37216136  0.78858862     0.11300
H981        H  0.04628978  0.37690338  0.74006348     0.16700
H982        H  0.02674387  0.28137946  0.69213038     0.12600
H983        H  0.08569303  0.18395450  0.78216724     0.15500
H984        H  0.10537138  0.27801342  0.83284379     0.15300
C985        C  0.96736287  0.48200987  0.70528385    -0.17600
C986        C  0.95273756  0.50666310  0.70212903    -0.19800
C987        C  0.94234796  0.50892876  0.67248062     0.20900
C988        C  0.94668503  0.48597493  0.64577533    -0.02700
C989        C  0.96158963  0.46139321  0.64880956    -0.05800
C990        C  0.97197394  0.45933709  0.67873932     0.21100
C991        C  0.96626148  0.43926755  0.62170459     0.19300
C992        C  0.95581147  0.44131490  0.59211937    -0.17300
C993        C  0.94094273  0.46537425  0.58924061    -0.19500
C994        C  0.93635423  0.48798185  0.61583046     0.20800
C995        C  0.92191109  0.51311122  0.61267057    -0.32500
C996        C  0.91780373  0.53683824  0.63884155     0.01500
C997        C  0.92797605  0.53421874  0.66883240    -0.23800
C998        C  0.98696587  0.43511264  0.68137084    -0.28400
C999        C  0.99198087  0.41366822  0.65409524     0.07200
C1000       C  0.98145968  0.41582939  0.62446221    -0.27100
H1001       H  0.97519409  0.48093468  0.72838012     0.11900
H1002       H  0.94961597  0.52412310  0.72287665     0.13000
H1003       H  0.95921352  0.42443163  0.57109132     0.12100
H1004       H  0.93317656  0.46660464  0.56606551     0.11300
H1005       H  0.91429605  0.51494388  0.58935398     0.16700
H1006       H  0.92498793  0.55235928  0.68913681     0.12600
H1007       H  0.99508288  0.43377510  0.70416196     0.15500
H1008       H  0.98513126  0.39918310  0.60339578     0.15300
C1009       C  0.27238456  0.96040800  0.41120690    -0.17600
C1010       C  0.26122651  0.98313022  0.43052690    -0.19800
C1011       C  0.26934089  0.01097613  0.44897401     0.20900
C1012       C  0.28877664  0.01719025  0.44633978    -0.02700
C1013       C  0.30004893  0.99411963  0.42700610    -0.05800
C1014       C  0.29188988  0.96500623  0.41006178     0.21100
C1015       C  0.31960969  0.99907107  0.42618704     0.19300
C1016       C  0.32763437  0.02799632  0.44317088    -0.17300
C1017       C  0.31651799  0.05069119  0.46238922    -0.19500
C1018       C  0.29716891  0.04490659  0.46487767     0.20800
C1019       C  0.28638232  0.06445242  0.48762317    -0.32500
C1020       C  0.26738910  0.05639102  0.49247472     0.01500
C1021       C  0.25871735  0.03081710  0.47198180    -0.23800
C1022       C  0.30343944  0.94016025  0.39361605    -0.28400
C1023       C  0.32308101  0.94389996  0.39423767     0.07200
C1024       C  0.33092155  0.97415304  0.40973634    -0.27100
H1025       H  0.26582338  0.93847156  0.39810045     0.11900
H1026       H  0.24631683  0.97808708  0.43199684     0.13000
H1027       H  0.34262843  0.03235166  0.44254993     0.12100
H1028       H  0.32315988  0.07195493  0.47630234     0.11300
H1029       H  0.29313943  0.08360552  0.50389563     0.16700
H1030       H  0.24417081  0.02399271  0.47624800     0.12600
H1031       H  0.29718550  0.91722412  0.38155118     0.15500
H1032       H  0.34597749  0.97776331  0.41006646     0.15300
C1033       C  0.23605161  0.16888335  0.66014452    -0.17600
C1034       C  0.22678963  0.17656070  0.69004650    -0.19800
C1035       C  0.20898554  0.16227512  0.69650705     0.20900
C1036       C  0.20000622  0.14184344  0.67158217    -0.02700
C1037       C  0.20939452  0.13393915  0.64142334    -0.05800
C1038       C  0.22771447  0.14671201  0.63613362     0.21100
C1039       C  0.20093508  0.11129442  0.61760691     0.19300
C1040       C  0.18273203  0.09863189  0.62324325    -0.17300
C1041       C  0.17334385  0.10689108  0.65281374    -0.19500
C1042       C  0.18206555  0.12762872  0.67749905     0.20800
C1043       C  0.17351478  0.13280691  0.70857258    -0.32500
C1044       C  0.18281874  0.15105142  0.73452335     0.01500
C1045       C  0.20039566  0.16660178  0.72789970    -0.23800
C1046       C  0.23785302  0.13497367  0.60821513    -0.28400
C1047       C  0.23000542  0.11036213  0.58572279     0.07200
C1048       C  0.21130550  0.09967965  0.58987745    -0.27100
H1049       H  0.25005304  0.17919779  0.65636375     0.11900
H1050       H  0.23383131  0.19270995  0.70859187     0.13000
H1051       H  0.17595746  0.08138915  0.60521545     0.12100
H1052       H  0.15950731  0.09594388  0.65690026     0.11300
H1053       H  0.15994461  0.12084546  0.71307480     0.16700
H1054       H  0.20760097  0.18116844  0.74738761     0.12600
H1055       H  0.25241117  0.14256434  0.60547579     0.15500
H1056       H  0.20539247  0.07992634  0.57316959     0.15300
C1057       C  0.17866186  0.37250637  0.11987808    -0.17600
C1058       C  0.16982024  0.36393032  0.14994700    -0.19800
C1059       C  0.18039956  0.35455582  0.17816711     0.20900
C1060       C  0.20001189  0.35174617  0.17551059    -0.02700
C1061       C  0.20893126  0.35996345  0.14498821    -0.05800
C1062       C  0.19824768  0.37155447  0.11736049     0.21100
C1063       C  0.22860839  0.35894603  0.14285046     0.19300
C1064       C  0.23914555  0.34806256  0.17062625    -0.17300
C1065       C  0.23032657  0.34001496  0.20082302    -0.19500
C1066       C  0.21080218  0.34265137  0.20379549     0.20800
C1067       C  0.20199941  0.33800701  0.23484598    -0.32500
C1068       C  0.18251023  0.34257213  0.23814268     0.01500
C1069       C  0.17178968  0.34965694  0.20929439    -0.23800
C1070       C  0.20736268  0.38464000  0.08875515    -0.28400
C1071       C  0.22701166  0.38598270  0.08739815     0.07200
C1072       C  0.23746119  0.37141588  0.11391483    -0.27100
H1073       H  0.17020336  0.38104274  0.09891098     0.11900
H1074       H  0.15471628  0.36591348  0.15145473     0.13000
H1075       H  0.25428235  0.34703909  0.16936387     0.12100
H1076       H  0.23884318  0.33281942  0.22215769     0.11300
H1077       H  0.21043555  0.33219132  0.25665334     0.16700
H1078       H  0.15675710  0.35289144  0.21123327     0.12600
H1079       H  0.19916639  0.39696466  0.06924784     0.15500
H1080       H  0.25261615  0.37295598  0.11324037     0.15300
C1081       C  0.05936589  0.41080808  0.52273866    -0.17600
C1082       C  0.07274094  0.40980650  0.49738790    -0.19800
C1083       C  0.08455846  0.38016012  0.49389432     0.20900
C1084       C  0.08265842  0.35093060  0.51580357    -0.02700
C1085       C  0.06935895  0.35219915  0.54175596    -0.05800
C1086       C  0.05773735  0.38238527  0.54530142     0.21100
C1087       C  0.06797021  0.32363022  0.56453007     0.19300
C1088       C  0.07934378  0.29344521  0.56032599    -0.17300
C1089       C  0.09223674  0.29185224  0.53415907    -0.19500
C1090       C  0.09415959  0.32060758  0.51199236     0.20800
C1091       C  0.10733463  0.31958581  0.48606989    -0.32500
C1092       C  0.10950001  0.34887547  0.46445535     0.01500
C1093       C  0.09814897  0.37916488  0.46874458    -0.23800
C1094       C  0.04513230  0.38418500  0.57196340    -0.28400
C1095       C  0.04441521  0.35676167  0.59583414     0.07200
C1096       C  0.05562268  0.32622245  0.59158711    -0.27100
H1097       H  0.05051861  0.43413325  0.52506875     0.11900
H1098       H  0.07389351  0.43231636  0.48057400     0.13000
H1099       H  0.07837809  0.27116787  0.57745239     0.12100
H1100       H  0.10088870  0.26830106  0.53152615     0.11300
H1101       H  0.11595287  0.29606964  0.48274978     0.16700
H1102       H  0.09946866  0.40152549  0.45176069     0.12600
H1103       H  0.03657588  0.40781551  0.57506722     0.15500
H1104       H  0.05497989  0.30476617  0.60968083     0.15300
C1105       C  0.23903780  0.22337943  0.44220769    -0.17600
C1106       C  0.24820906  0.19781328  0.46192728    -0.19800
C1107       C  0.23842455  0.16828057  0.47461181     0.20900
C1108       C  0.21925597  0.16423910  0.46689856    -0.02700
C1109       C  0.21003563  0.18994848  0.44689427    -0.05800
C1110       C  0.21989852  0.21988285  0.43466637     0.21100
C1111       C  0.19084074  0.18596551  0.43967262     0.19300
C1112       C  0.18109625  0.15619871  0.45187454    -0.17300
C1113       C  0.19017698  0.13087958  0.47172467    -0.19500
C1114       C  0.20917867  0.13482324  0.47967089     0.20800
C1115       C  0.21817201  0.11022128  0.50064036    -0.32500
C1116       C  0.23711252  0.11442034  0.50882672     0.01500
C1117       C  0.24729374  0.14307863  0.49535938    -0.23800
C1118       C  0.21033990  0.24601612  0.41575447    -0.28400
C1119       C  0.19099835  0.24262325  0.40922785     0.07200
C1120       C  0.18154469  0.21210869  0.42095912    -0.27100
H1121       H  0.24689214  0.24608638  0.43309758     0.11900
H1122       H  0.26293077  0.20136632  0.46757345     0.13000
H1123       H  0.16635092  0.15273408  0.44642168     0.12100
H1124       H  0.18226973  0.10839802  0.48118357     0.11300
H1125       H  0.21047333  0.08787967  0.51089877     0.16700
H1126       H  0.26194354  0.14612685  0.50183335     0.12600
H1127       H  0.21780311  0.26936970  0.40699246     0.15500
H1128       H  0.16672647  0.20886534  0.41597155     0.15300
C1129       C  0.24735804  0.44621607  0.42539297    -0.17600
C1130       C  0.25901613  0.46980300  0.44274873    -0.19800
C1131       C  0.25273898  0.50411687  0.45108612     0.20900
C1132       C  0.23485695  0.51538949  0.44039630    -0.02700
C1133       C  0.22297090  0.49136983  0.42322453    -0.05800
C1134       C  0.22914907  0.45641089  0.41628266     0.21100
C1135       C  0.20455146  0.50165245  0.41479259     0.19300
C1136       C  0.19860645  0.53655505  0.42174988    -0.17300
C1137       C  0.21037521  0.56034478  0.43871738    -0.19500
C1138       C  0.22830774  0.54965777  0.44908692     0.20800
C1139       C  0.23904594  0.57122614  0.47056205    -0.32500
C1140       C  0.25600136  0.55857935  0.48393797     0.01500
C1141       C  0.26327669  0.52600888  0.47247218    -0.23800
C1142       C  0.21675904  0.43170857  0.40184086    -0.28400
C1143       C  0.19804131  0.44105201  0.39518307     0.07200
C1144       C  0.19218055  0.47639154  0.40100223    -0.27100
H1145       H  0.25235004  0.41953894  0.42016536     0.11900
H1146       H  0.27271021  0.46071406  0.45071934     0.13000
H1147       H  0.18458911  0.54508756  0.41510920     0.12100
H1148       H  0.20514869  0.58659989  0.44496499     0.11300
H1149       H  0.23318409  0.59586892  0.48001463     0.16700
H1150       H  0.27610561  0.51581178  0.48339779     0.12600
H1151       H  0.22141956  0.40463001  0.39742689     0.15500
H1152       H  0.17785493  0.48400252  0.39551684     0.15300
C1153       C  0.95534351  0.56887836  0.43967681    -0.17600
C1154       C  0.94295093  0.57263729  0.46633714    -0.19800
C1155       C  0.93427219  0.60553177  0.47256525     0.20900
C1156       C  0.93817925  0.63504630  0.45197386    -0.02700
C1157       C  0.95054832  0.63116159  0.42488750    -0.05800
C1158       C  0.95920235  0.59791895  0.41873022     0.21100
C1159       C  0.95411150  0.66044784  0.40381511     0.19300
C1160       C  0.94558215  0.69344215  0.41026259    -0.17300
C1161       C  0.93352427  0.69741661  0.43738737    -0.19500
C1162       C  0.92964893  0.66836700  0.45830991     0.20800
C1163       C  0.91730767  0.67193499  0.48527958    -0.32500
C1164       C  0.91307083  0.64236322  0.50542321     0.01500
C1165       C  0.92168819  0.60933971  0.49895002    -0.23800
C1166       C  0.97135077  0.59421499  0.39150225    -0.28400
C1167       C  0.97460436  0.62313208  0.37000977     0.07200
C1168       C  0.96599048  0.65616452  0.37645032    -0.27100
H1169       H  0.96181357  0.54318141  0.43530596     0.11900
H1170       H  0.94010775  0.54975883  0.48205033     0.13000
H1171       H  0.94821842  0.71618374  0.39427629     0.12100
H1172       H  0.92710804  0.72315057  0.44183702     0.11300
H1173       H  0.91079047  0.69748180  0.49026992     0.16700
H1174       H  0.91877357  0.58656117  0.51477941     0.12600
H1175       H  0.97779858  0.56862126  0.38644339     0.15500
H1176       H  0.96852093  0.67863997  0.36005336     0.15300
C1177       C  0.06696543  0.54798162  0.36648649    -0.17600
C1178       C  0.08198412  0.52428381  0.36896961    -0.19800
C1179       C  0.08501502  0.49859692  0.34418157     0.20900
C1180       C  0.07304848  0.49720984  0.31623169    -0.02700
C1181       C  0.05794359  0.52142275  0.31355577    -0.05800
C1182       C  0.05478004  0.54652154  0.33909199     0.21100
C1183       C  0.04584193  0.52012762  0.28570554     0.19300
C1184       C  0.04904682  0.49459833  0.26077721    -0.17300
C1185       C  0.06391037  0.47032262  0.26362628    -0.19500
C1186       C  0.07595833  0.47125417  0.29133170     0.20800
C1187       C  0.09060044  0.44632153  0.29497210    -0.32500
C1188       C  0.10237362  0.44711413  0.32321927     0.01500
C1189       C  0.09957686  0.47382634  0.34735117    -0.23800
C1190       C  0.03931354  0.56935125  0.33713209    -0.28400
C1191       C  0.02709855  0.56811008  0.30970902     0.07200
C1192       C  0.03060339  0.54393940  0.28368195    -0.27100
H1193       H  0.06477275  0.56725402  0.38618715     0.11900
H1194       H  0.09108540  0.52571969  0.39054997     0.13000
H1195       H  0.03991615  0.49311485  0.23924948     0.12100
H1196       H  0.06590186  0.45062873  0.24422778     0.11300
H1197       H  0.09253177  0.42585687  0.27625187     0.16700
H1198       H  0.10846175  0.47486687  0.36924969     0.12600
H1199       H  0.03673765  0.58824345  0.35704132     0.15500
H1200       H  0.02114875  0.54289357  0.26255590     0.15300
C1201       C  0.75201012  0.44420618  0.05215694    -0.17600
C1202       C  0.76420565  0.46569593  0.03356598    -0.19800
C1203       C  0.75772931  0.49699366  0.01810279     0.20900
C1204       C  0.73891370  0.50738856  0.02247387    -0.02700
C1205       C  0.72657197  0.48556889  0.04108531    -0.05800
C1206       C  0.73306030  0.45348676  0.05551998     0.21100
C1207       C  0.70754454  0.49505377  0.04387972     0.19300
C1208       C  0.70115301  0.52677960  0.02916892    -0.17300
C1209       C  0.71331094  0.54821186  0.01060154    -0.19500
C1210       C  0.73212829  0.53844179  0.00657966     0.20800
C1211       C  0.74388262  0.55774072  0.98506174    -0.32500
C1212       C  0.76227323  0.54627923  0.97894343     0.01500
C1213       C  0.76931527  0.51664594  0.99647186    -0.23800
C1214       C  0.72033711  0.43057623  0.07175494    -0.28400
C1215       C  0.70112938  0.43909973  0.07322643     0.07200
C1216       C  0.69504280  0.47196408  0.06003323    -0.27100
H1217       H  0.75729250  0.41978399  0.06311867     0.11900
H1218       H  0.77860492  0.45728025  0.03050863     0.13000
H1219       H  0.68658418  0.53451032  0.03119296     0.12100
H1220       H  0.70785956  0.57192807  0.99859754     0.11300
H1221       H  0.73821594  0.57974471  0.97068149     0.16700
H1222       H  0.78325782  0.50698742  0.99086961     0.12600
H1223       H  0.72524669  0.40546182  0.08189679     0.15500
H1224       H  0.68036570  0.47915414  0.06134082     0.15300
C1225       C  0.85453418  0.59679417  0.81460012    -0.17600
C1226       C  0.84601839  0.58986946  0.84535465    -0.19800
C1227       C  0.82781847  0.60208815  0.85188159     0.20900
C1228       C  0.81843223  0.62271846  0.82756305    -0.02700
C1229       C  0.82690174  0.62915558  0.79625749    -0.05800
C1230       C  0.84493825  0.61573452  0.78961994     0.21100
C1231       C  0.81698589  0.64769317  0.77115347     0.19300
C1232       C  0.79907430  0.66105129  0.77812083    -0.17300
C1233       C  0.79074535  0.65488358  0.80912601    -0.19500
C1234       C  0.80012165  0.63506525  0.83371554     0.20800
C1235       C  0.79095886  0.62504776  0.86319933    -0.32500
C1236       C  0.79960344  0.60202214  0.88622619     0.01500
C1237       C  0.81831114  0.59179385  0.88107529    -0.23800
C1238       C  0.85281781  0.62054177  0.75784168    -0.28400
C1239       C  0.84277084  0.63792882  0.73219054     0.07200
C1240       C  0.82490517  0.65172798  0.73928662    -0.27100
H1241       H  0.86844265  0.58642651  0.81000768     0.11900
H1242       H  0.85348873  0.57412116  0.86371424     0.13000
H1243       H  0.79130829  0.67559112  0.75929517     0.12100
H1244       H  0.77668699  0.66461302  0.81346355     0.11300
H1245       H  0.77637205  0.63210672  0.86663999     0.16700
H1246       H  0.82481841  0.57307247  0.89812117     0.12600
H1247       H  0.86657907  0.60967777  0.75279189     0.15500
H1248       H  0.81709535  0.66539489  0.71993771     0.15300
C1249       C  0.83264291  0.86959253  0.34882131    -0.17600
C1250       C  0.84285735  0.86600499  0.31922398    -0.19800
C1251       C  0.83396019  0.85559964  0.28951642     0.20900
C1252       C  0.81469809  0.84741865  0.29001280    -0.02700
C1253       C  0.80440191  0.85073190  0.32001853    -0.05800
C1254       C  0.81332744  0.86265205  0.34939947     0.21100
C1255       C  0.78498159  0.84404820  0.32011987     0.19300
C1256       C  0.77616763  0.83274164  0.29066114    -0.17300
C1257       C  0.78634653  0.82937573  0.26105543    -0.19500
C1258       C  0.80554684  0.83729980  0.26027265     0.20800
C1259       C  0.81557753  0.83626604  0.23010971    -0.32500
C1260       C  0.83472436  0.84526240  0.22905696     0.01500
C1261       C  0.84384607  0.85426070  0.25919600    -0.23800
C1262       C  0.80259047  0.86993472  0.37805445    -0.28400
C1263       C  0.78300876  0.86580264  0.37757632     0.07200
C1264       C  0.77449611  0.85123824  0.34893975    -0.27100
H1265       H  0.83977239  0.87871052  0.37107173     0.11900
H1266       H  0.85766485  0.87225546  0.31940698     0.13000
H1267       H  0.76125702  0.82746430  0.29027554     0.12100
H1268       H  0.77908654  0.82137771  0.23855282     0.11300
H1269       H  0.80835817  0.82904050  0.20732986     0.16700
H1270       H  0.85857850  0.86115973  0.25899544     0.12600
H1271       H  0.80923439  0.88230246  0.39931919     0.15500
H1272       H  0.75937844  0.84868835  0.34809726     0.15300
C1273       C  0.95588388  0.92216718  0.93659254    -0.17600
C1274       C  0.94286458  0.92026626  0.96251264    -0.19800
C1275       C  0.93488054  0.88745912  0.97159826     0.20900
C1276       C  0.94022147  0.85617916  0.95458149    -0.02700
C1277       C  0.95317235  0.85817377  0.92804626    -0.05800
C1278       C  0.96100914  0.89136022  0.91902655     0.21100
C1279       C  0.95801516  0.82710381  0.91019805     0.19300
C1280       C  0.95041507  0.79415592  0.91988150    -0.17300
C1281       C  0.93786594  0.79208589  0.94657583    -0.19500
C1282       C  0.93250783  0.82297854  0.96386063     0.20800
C1283       C  0.91958502  0.82126661  0.99020783    -0.32500
C1284       C  0.91400580  0.85241118  0.00714047     0.01500
C1285       C  0.92171233  0.88542392  0.99746497    -0.23800
C1286       C  0.97343947  0.89334210  0.89206266    -0.28400
C1287       C  0.97761701  0.86284131  0.87315644     0.07200
C1288       C  0.97001641  0.82971216  0.88257449    -0.27100
H1289       H  0.96175341  0.94785605  0.92997383     0.11900
H1290       H  0.93900361  0.94452092  0.97542529     0.13000
H1291       H  0.95407513  0.76998496  0.90664432     0.12100
H1292       H  0.93216589  0.76633259  0.95344782     0.11300
H1293       H  0.91384228  0.79565970  0.99748356     0.16700
H1294       H  0.91777144  0.90953732  0.01055950     0.12600
H1295       H  0.97917842  0.91895969  0.88479009     0.15500
H1296       H  0.97333531  0.80607331  0.86821883     0.15300
C1297       C  0.78680859  0.71253539  0.03354776    -0.17600
C1298       C  0.77839677  0.68601763  0.01388365    -0.19800
C1299       C  0.78920622  0.65880429  0.99952357     0.20900
C1300       C  0.80867376  0.65803341  0.00557364    -0.02700
C1301       C  0.81714197  0.68467548  0.02564864    -0.05800
C1302       C  0.80621557  0.71235521  0.03941252     0.21100
C1303       C  0.83661055  0.68398293  0.03132927     0.19300
C1304       C  0.84739896  0.65644893  0.01747677    -0.17300
C1305       C  0.83906954  0.63030720  0.99745675    -0.19500
C1306       C  0.81976160  0.63103583  0.99104840     0.20800
C1307       C  0.81141470  0.60562411  0.96996787    -0.32500
C1308       C  0.79210260  0.60650449  0.96346882     0.01500
C1309       C  0.78100833  0.63277783  0.97875098    -0.23800
C1310       C  0.81494447  0.73975510  0.05803125    -0.28400
C1311       C  0.83452417  0.73990361  0.06294864     0.07200
C1312       C  0.84508415  0.71128059  0.04999459    -0.27100
H1313       H  0.77813665  0.73343629  0.04388864     0.11900
H1314       H  0.76343387  0.68707223  0.00955813     0.13000
H1315       H  0.86237579  0.65545190  0.02168753     0.12100
H1316       H  0.84778264  0.60970367  0.98667684     0.11300
H1317       H  0.81989935  0.58513764  0.95845360     0.16700
H1318       H  0.76611700  0.63346439  0.97361459     0.12600
H1319       H  0.80657964  0.76141311  0.06782179     0.15500
H1320       H  0.86011469  0.71062292  0.05366805     0.15300
C1321       C  0.97225506  0.75518710  0.25258131    -0.17600
C1322       C  0.95951701  0.77638887  0.23506888    -0.19800
C1323       C  0.94915300  0.76201643  0.20856395     0.20900
C1324       C  0.95227932  0.72647091  0.19852960    -0.02700
C1325       C  0.96517505  0.70504062  0.21620516    -0.05800
C1326       C  0.97483086  0.71932104  0.24383618     0.21100
C1327       C  0.96753854  0.66879941  0.20753458     0.19300
C1328       C  0.95767938  0.65493225  0.18017215    -0.17300
C1329       C  0.94502344  0.67630441  0.16242829    -0.19500
C1330       C  0.94190378  0.71185894  0.17186521     0.20800
C1331       C  0.92812808  0.73263775  0.15597192    -0.32500
C1332       C  0.92434219  0.76753389  0.16696641     0.01500
C1333       C  0.93525008  0.78222513  0.19276362    -0.23800
C1334       C  0.98578701  0.69685526  0.26372223    -0.28400
C1335       C  0.98700678  0.66023533  0.25677382     0.07200
C1336       C  0.97862231  0.64656350  0.22782437    -0.27100
H1337       H  0.97963030  0.76652739  0.27369710     0.11900
H1338       H  0.95737021  0.80372500  0.24287394     0.13000
H1339       H  0.95933879  0.62724661  0.17309079     0.12100
H1340       H  0.93726113  0.66469062  0.14192343     0.11300
H1341       H  0.91990835  0.72121942  0.13592322     0.16700
H1342       H  0.93272171  0.80932789  0.20097147     0.12600
H1343       H  0.99208950  0.70720465  0.28636686     0.15500
H1344       H  0.97926411  0.61817125  0.22289807     0.15300
C1345       C  0.76244364  0.98247411  0.03005613    -0.17600
C1346       C  0.77382018  0.95835565  0.04760123    -0.19800
C1347       C  0.79323845  0.96384240  0.04998602     0.20900
C1348       C  0.80108295  0.99487849  0.03578287    -0.02700
C1349       C  0.78956064  0.01945775  0.01838447    -0.05800
C1350       C  0.77021303  0.01274391  0.01472718     0.21100
C1351       C  0.79761576  0.04958719  0.00293221     0.19300
C1352       C  0.81690124  0.05577651  0.00623448    -0.17300
C1353       C  0.82826623  0.03152193  0.02341465    -0.19500
C1354       C  0.82056830  0.00062202  0.03765715     0.20800
C1355       C  0.83211686  0.97488977  0.05275663    -0.32500
C1356       C  0.82458589  0.94317629  0.06614842     0.01500
C1357       C  0.80499832  0.93832491  0.06528771    -0.23800
C1358       C  0.75934099  0.03487658  0.99379900    -0.28400
C1359       C  0.76766513  0.06332584  0.97634351     0.07200
C1360       C  0.78657841  0.07144586  0.98232328    -0.27100
H1361       H  0.74762156  0.97687322  0.02767125     0.11900
H1362       H  0.76749071  0.93484786  0.05849727     0.13000
H1363       H  0.82330658  0.07880106  0.99458819     0.12100
H1364       H  0.84319192  0.03648762  0.02480339     0.11300
H1365       H  0.84710690  0.97935255  0.05347069     0.16700
H1366       H  0.79895084  0.91423782  0.07558761     0.12600
H1367       H  0.74490350  0.02790223  0.98854312     0.15500
H1368       H  0.79312349  0.09276976  0.96828534     0.15300
C1369       C  0.09041543  0.18044541  0.03162613    -0.17600
C1370       C  0.07875318  0.17454459  0.05900920    -0.19800
C1371       C  0.07298555  0.13986686  0.06726779     0.20900
C1372       C  0.07892169  0.11081466  0.04768684    -0.02700
C1373       C  0.09097200  0.11672085  0.02037663    -0.05800
C1374       C  0.09667485  0.15173058  0.01223766     0.21100
C1375       C  0.09730145  0.08762200  0.00125574     0.19300
C1376       C  0.09133782  0.05297805  0.00931923    -0.17300
C1377       C  0.07921303  0.04716793  0.03613292    -0.19500
C1378       C  0.07295118  0.07586092  0.05555302     0.20800
C1379       C  0.06111885  0.07021644  0.08302334    -0.32500
C1380       C  0.05573458  0.09897990  0.10321561     0.01500
C1381       C  0.06161642  0.13369244  0.09505516    -0.23800
C1382       C  0.10842155  0.15745473  0.98474782    -0.28400
C1383       C  0.11481555  0.12859564  0.96551832     0.07200
C1384       C  0.10931644  0.09370266  0.97421132    -0.27100
H1385       H  0.09462926  0.20748146  0.02572071     0.11900
H1386       H  0.07425531  0.19713401  0.07377324     0.13000
H1387       H  0.09601918  0.03034016  0.99481025     0.12100
H1388       H  0.07483960  0.02017671  0.04182791     0.11300
H1389       H  0.05671581  0.04341864  0.08947970     0.16700
H1390       H  0.05736991  0.15594661  0.11053397     0.12600
H1391       H  0.11254080  0.18440748  0.97825506     0.15500
H1392       H  0.11395018  0.07128970  0.95932750     0.15300
C1393       C  0.05471381  0.23004674  0.22091406    -0.17600
C1394       C  0.06600442  0.25382596  0.23852905    -0.19800
C1395       C  0.07673594  0.24190854  0.26561758     0.20900
C1396       C  0.07555115  0.20603027  0.27599482    -0.02700
C1397       C  0.06415996  0.18191932  0.25810553    -0.05800
C1398       C  0.05402085  0.19400553  0.23008318     0.21100
C1399       C  0.06372910  0.14545772  0.26705789     0.19300
C1400       C  0.07396285  0.13396362  0.29499843    -0.17300
C1401       C  0.08511033  0.15802487  0.31301369    -0.19500
C1402       C  0.08634838  0.19396449  0.30326330     0.20800
C1403       C  0.09865836  0.21776960  0.31939657    -0.32500
C1404       C  0.10049473  0.25319585  0.30803597     0.01500
C1405       C  0.08911460  0.26509944  0.28166023    -0.23800
C1406       C  0.04436699  0.16950669  0.21033744    -0.28400
C1407       C  0.04499571  0.13296935  0.21758956     0.07200
C1408       C  0.05406418  0.12100687  0.24662747    -0.27100
H1409       H  0.04697157  0.23963831  0.19944571     0.11900
H1410       H  0.06671670  0.28135654  0.23042991     0.13000
H1411       H  0.07374536  0.10616787  0.30239371     0.12100
H1412       H  0.09318854  0.14828370  0.33400109     0.11300
H1413       H  0.10727459  0.20840271  0.33986246     0.16700
H1414       H  0.09013155  0.29244893  0.27307313     0.12600
H1415       H  0.03752354  0.17849957  0.18766371     0.15500
H1416       H  0.05479080  0.09266358  0.25183550     0.15300
C1417       C  0.97146251  0.99085973  0.21573150    -0.17600
C1418       C  0.95471725  0.97148075  0.21329877    -0.19800
C1419       C  0.94385948  0.97282493  0.18408487     0.20900
C1420       C  0.94978127  0.99453637  0.15738192    -0.02700
C1421       C  0.96682137  0.01354399  0.15959978    -0.05800
C1422       C  0.97777826  0.01163467  0.18887923     0.21100
C1423       C  0.97307111  0.03383897  0.13219161     0.19300
C1424       C  0.96199758  0.03612219  0.10338477    -0.17300
C1425       C  0.94504739  0.01770386  0.10136105    -0.19500
C1426       C  0.93898358  0.99642495  0.12797654     0.20800
C1427       C  0.92274432  0.97578866  0.12498029    -0.32500
C1428       C  0.91731174  0.95224128  0.15051221     0.01500
C1429       C  0.92764465  0.95175696  0.18050580    -0.23800
C1430       C  0.99492820  0.03013198  0.19048051    -0.28400
C1431       C  0.00143805  0.04947624  0.16276186     0.07200
C1432       C  0.99037872  0.05123751  0.13382617    -0.27100
H1433       H  0.97964763  0.98908445  0.23844319     0.11900
H1434       H  0.95038983  0.95505815  0.23410126     0.13000
H1435       H  0.96655253  0.05183133  0.08225283     0.12100
H1436       H  0.93688574  0.01944816  0.07863336     0.11300
H1437       H  0.91492891  0.97662039  0.10181885     0.16700
H1438       H  0.92361855  0.93379961  0.20039567     0.12600
H1439       H  0.00339989  0.02882454  0.21289770     0.15500
H1440       H  0.99515646  0.06664601  0.11263035     0.15300
loop_ 
_geom_bond_atom_site_label_1 
_geom_bond_atom_site_label_2 
_geom_bond_distance 
_geom_bond_site_symmetry_2 
_ccdc_geom_bond_type 
C1            N2   1.365       .  A
C1            N6   1.365       .  A
C1         C1431   1.480       .  S
N2            C3   1.360       .  A
C3            N4   1.354       .  A
C3         C1407   1.467       .  S
N4            C5   1.351       .  A
C5            N6   1.357       .  A
C5         C1380   1.476       .  S
O7           C23   1.278       .  A
O7          Zn13   2.027       .  S
C8         C1428   1.488       .  S
C8           O24   1.274       .  A
C8           O21   1.274       .  A
O9           C22   1.275       .  A
O9          Cd16   2.082       .  S
O10          C28   1.275       .  A
O10         Cd19   2.063       .  S
O11          C25   1.284       .  A
O11         Cd15   2.124       .  S
O12          C23   1.283       .  A
O12         Cd15   2.121       .  S
Zn13         O24   2.013       .  S
Zn13         O26   2.036       .  S
Zn13         O18   1.950       .  S
O14          C25   1.278       .  A
O14         Cd19   2.082       .  S
Cd15         O17   2.133       .  S
Cd15         O18   2.025       .  S
Cd16         O20   2.075       .  S
Cd16         O29   2.083       .  S
Cd16         O18   2.012       .  S
O17          C27   1.284       .  A
O18         Cd19   2.014       .  S
Cd19         O21   2.081       .  S
O20          C27   1.278       .  A
C22        C1284   1.490       .  S
C22          O26   1.276       .  A
C23        C1356   1.498       .  S
C25        C1260   1.500       .  S
C27        C1311   1.502       .  S
C28        C1332   1.483       .  S
C28          O29   1.276       .  A
N30          C34   1.363       .  A
N30          C31   1.363       .  A
N30        C1308   1.443       .  S
C31        C1212   1.479       .  S
C31          C32   1.381       .  A
C32          C33   1.369       .  A
C32          H35   1.083       .  S
C33          C34   1.381       .  A
C33          H36   1.083       .  S
C34        C1236   1.481       .  S
C37          N38   1.366       .  A
C37          N42   1.364       .  A
C37        C1191   1.478       .  S
N38          C39   1.362   1_455  A
C39          N40   1.352       .  A
C39        C1335   1.469       .  S
N40          C41   1.350       .  A
C41          N42   1.357   1_655  A
C41        C1167   1.478       .  S
O43          C59   1.278       .  A
O43         Zn49   2.037       .  S
C44        C1188   1.490       .  S
C44          O60   1.273       .  A
C44          O57   1.276       .  A
O45          C58   1.274       .  A
O45         Cd52   2.072       .  S
O46          C64   1.275       .  A
O46         Cd55   2.062       .  S
O47          C61   1.282       .  A
O47         Cd51   2.111       .  S
O48          C59   1.279       .  A
O48         Cd51   2.093       .  S
Zn49         O60   2.008       .  S
Zn49         O62   2.034       .  S
Zn49         O54   1.951       .  S
O50          C61   1.278       .  A
O50         Cd55   2.079       .  S
Cd51         O53   2.120       .  S
Cd51         O54   2.020       .  S
Cd52         O56   2.066       .  S
Cd52         O65   2.086       .  S
Cd52         O54   2.007       .  S
O53          C63   1.281       .  A
O54         Cd55   2.006       .  S
Cd55         O57   2.094       .  S
O56          C63   1.276       .  A
C58        C1092   1.482       .  S
C58          O62   1.277       .  A
C59        C1143   1.488       .  S
C61        C1068   1.495       .  S
C63        C1119   1.494       .  S
C64        C1404   1.484       .  S
C64          O65   1.276       .  A
N66          C70   1.361       .  A
N66          C67   1.359       .  A
N66        C1116   1.437       .  S
C67        C1020   1.480       .  S
C67          C68   1.382       .  A
C68          C69   1.373       .  A
C68          H71   1.083       .  S
C69          C70   1.381       .  A
C69          H72   1.082       .  S
C70        C1047   1.483       .  S
C73          N74   1.367       .  A
C73          N78   1.361       .  A
C73         C999   1.483   1_455  S
N74          C75   1.363       .  A
C75          N76   1.357       .  A
C75         C972   1.472       .  S
N76          C77   1.354       .  A
C77          N78   1.356       .  A
C77        C1095   1.481       .  S
O79          C95   1.272       .  A
O79         Zn85   2.010       .  S
C80         C948   1.489       .  S
C80          O96   1.275       .  A
C80          O93   1.279       .  A
O81          C94   1.275       .  A
O81         Cd88   2.081       .  S
O82         C100   1.282       .  A
O82         Cd91   2.114       .  S
O83          C97   1.277       .  A
O83         Cd87   2.071       .  S
O84          C95   1.274       .  A
O84         Cd87   2.075       .  S
Zn85         O96   2.014       .  S
Zn85         O98   1.993       .  S
Zn85         O90   1.940       .  S
O86          C97   1.285       .  A
O86         Cd91   2.121       .  S
Cd87         O89   2.070       .  S
Cd87         O90   1.997       .  S
Cd88         O92   2.092       .  S
Cd88        O101   2.076       .  S
Cd88         O90   2.014       .  S
O89          C99   1.276       .  A
O90         Cd91   2.018       .  S
Cd91         O93   2.105       .  S
O92          C99   1.277       .  A
C94        C1164   1.477       .  S
C94          O98   1.272       .  A
C95         C996   1.486       .  S
C97        C1239   1.493       .  S
C99         C927   1.485       .  S
C100        C900   1.494       .  S
C100        O101   1.278       .  A
N102        C106   1.366       .  A
N102        C103   1.363       .  A
N102        C903   1.440       .  S
C103        C876   1.483       .  S
C103        C104   1.380       .  A
C104        C105   1.368       .  A
C104        H107   1.083       .  S
C105        C106   1.383       .  A
C105        H108   1.082       .  S
C106       C1263   1.490       .  S
C109        N110   1.366       .  A
C109        N114   1.362       .  A
C109        C852   1.491       .  S
N110        C111   1.365   1_455  A
C111        N112   1.359       .  A
C111        C924   1.473       .  S
N112        C113   1.354       .  A
C113        N114   1.355   1_655  A
C113       C1287   1.481       .  S
O115        C131   1.273       .  A
O115       Zn121   2.010       .  S
C116        C828   1.497       .  S
C116        O132   1.277       .  A
C116        O129   1.282       .  A
O117        C130   1.276       .  A
O117       Cd124   2.081       .  S
O118        C136   1.284       .  A
O118       Cd127   2.129       .  S
O119        C133   1.277       .  A
O119       Cd123   2.068       .  S
O120        C131   1.274       .  A
O120       Cd123   2.090       .  S
Zn121       O132   2.026       .  S
Zn121       O134   2.020       .  S
Zn121       O126   1.941       .  S
O122        C133   1.285       .  A
O122       Cd127   2.132       .  S
Cd123       O125   2.058       .  S
Cd123       O126   2.003       .  S
Cd124       O128   2.090       .  S
Cd124       O137   2.062       .  S
Cd124       O126   2.010       .  S
O125        C135   1.274       .  A
O126       Cd127   2.027       .  S
Cd127       O129   2.121       .  S
O128        C135   1.275       .  A
C130       C1383   1.485       .  S
C130        O134   1.274       .  A
C131        C855   1.488       .  S
C133       C1044   1.497       .  S
C135        C975   1.480       .  S
C136        C807   1.496       .  S
C136        O137   1.276       .  A
N138        C142   1.364       .  A
N138        C139   1.362       .  A
N138        C804   1.441       .  S
C139        C783   1.479   1_554  S
C139        C140   1.380       .  A
C140        C141   1.369       .  A
C140        H143   1.083       .  S
C141        C142   1.383       .  A
C141        H144   1.083       .  S
C142       C1071   1.486       .  S
C145        N146   1.364       .  A
C145        N150   1.366       .  A
C145        C756   1.478       .  S
N146        C147   1.358       .  A
C147        N148   1.350       .  A
C147        C732   1.464       .  S
N148        C149   1.353       .  A
C149        N150   1.361       .  A
C149        C708   1.484       .  S
O151        C167   1.273       .  A
O151       Zn157   2.013       .  S
C152       C1215   1.492       .  S
C152        O168   1.277       .  A
C152        O165   1.279       .  A
O153        C166   1.274       .  A
O153       Cd160   2.065       .  S
O154        C172   1.281       .  A
O154       Cd163   2.108       .  S
O155        C169   1.276       .  A
O155       Cd159   2.061       .  S
O156        C167   1.274       .  A
O156       Cd159   2.074       .  S
Zn157       O168   2.023       .  S
Zn157       O170   2.030       .  S
Zn157       O162   1.945       .  S
O158        C169   1.282       .  A
O158       Cd163   2.108       .  S
Cd159       O161   2.064       .  S
Cd159       O162   1.996       .  S
Cd160       O164   2.081       .  S
Cd160       O173   2.058       .  S
Cd160       O162   2.001       .  S
O161        C171   1.275       .  A
O162       Cd163   2.020       .  S
Cd163       O165   2.104       .  S
O164        C171   1.275       .  A
C166        C636   1.480       .  S
C166        O170   1.275       .  A
C167        C759   1.486       .  S
C169        C615   1.488       .  S
C171        C687   1.482       .  S
C172        C660   1.490       .  S
C172        O173   1.275       .  A
N174        C178   1.366       .  A
N174        C175   1.363       .  A
N174        C663   1.443       .  S
C175       C1359   1.483       .  S
C175        C176   1.381       .  A
C176        C177   1.370       .  A
C176        H179   1.082       .  S
C177        C178   1.380       .  A
C177        H180   1.082       .  S
C178        C591   1.485       .  S
C181        N182   1.365       .  A
C181        N186   1.366       .  A
C181        C564   1.485       .  S
N182        C183   1.359       .  A
C183        N184   1.351       .  A
C183        C543   1.480       .  S
N184        C185   1.353       .  A
C185        N186   1.361       .  A
C185        C684   1.467       .  S
O187        C203   1.272       .  A
O187       Zn193   2.007       .  S
C188       C1023   1.492       .  S
C188        O204   1.275       .  A
C188        O201   1.279       .  A
O189        C202   1.274       .  A
O189       Cd196   2.069       .  S
O190        C208   1.283       .  A
O190       Cd199   2.123       .  S
O191        C205   1.280       .  A
O191       Cd195   2.079       .  S
O192        C203   1.277       .  A
O192       Cd195   2.105       .  S
Zn193       O204   2.013       .  S
Zn193       O206   2.000       .  S
Zn193       O198   1.934       .  S
O194        C205   1.283       .  A
O194       Cd199   2.111       .  S
Cd195       O197   2.076       .  S
Cd195       O198   2.011       .  S
Cd196       O200   2.069       .  S
Cd196       O209   2.070       .  S
Cd196       O198   2.008       .  S
O197        C207   1.276       .  A
O198       Cd199   2.017       .  S
Cd199       O201   2.105       .  S
O200        C207   1.275       .  A
C202        C492   1.473       .  S
C202        O206   1.273       .  A
C203        C567   1.493       .  S
C205        C471   1.495       .  S
C207        C735   1.476       .  S
C208        C516   1.493       .  S
C208        O209   1.275       .  A
N210        C214   1.362       .  A
N210        C211   1.361       .  A
N210        C519   1.439       .  S
C211       C1140   1.478       .  S
C211        C212   1.380       .  A
C212        C213   1.369       .  A
C212        H215   1.083       .  S
C213        C214   1.383       .  A
C213        H216   1.082       .  S
C214        C444   1.485       .  S
C217        N218   1.370       .  A
C217        N222   1.364       .  A
C217        C420   1.492       .  S
N218        C219   1.365       .  A
C219        N220   1.356       .  A
C219        C399   1.481       .  S
N220        C221   1.355       .  A
C221        N222   1.358       .  A
C221        C639   1.483       .  S
O223        C239   1.277       .  A
O223       Zn229   2.029       .  S
C224        C423   1.490       .  S
C224        O240   1.271       .  A
C224        O237   1.278       .  A
O225        C238   1.275       .  A
O225       Cd232   2.079       .  S
O226        C244   1.277       .  A
O226       Cd235   2.078       .  S
O227        C241   1.282       .  A
O227       Cd231   2.100       .  S
O228        C239   1.278       .  A
O228       Cd231   2.097       .  S
Zn229       O240   1.997       .  S
Zn229       O242   2.009       .  S
Zn229       O234   1.948       .  S
O230        C241   1.281       .  A
O230       Cd235   2.100       .  S
Cd231       O233   2.097       .  S
Cd231       O234   2.011       .  S
Cd232       O236   2.094       .  S
Cd232       O245   2.103       .  S
Cd232       O234   2.017       .  S
O233        C243   1.279       .  A
O234       Cd235   2.010       .  S
Cd235       O237   2.104       .  S
O236        C243   1.280       .  A
C238        C711   1.471       .  S
C238        O242   1.273       .  A
C239        C780   1.489       .  S
C241        C447   1.498       .  S
C243        C351   1.494       .  S
C244        C375   1.494       .  S
C244        O245   1.279       .  A
N246        C250   1.365       .  A
N246        C247   1.363       .  A
N246        C348   1.441       .  S
C247        C831   1.481   1_554  S
C247        C248   1.380       .  A
C248        C249   1.367       .  A
C248        H251   1.083       .  S
C249        C250   1.383       .  A
C249        H252   1.082       .  S
C250        C468   1.487       .  S
C253        N254   1.362       .  A
C253        N258   1.371       .  A
C253        C324   1.493       .  S
N254        C255   1.355       .  A
C255        N256   1.349       .  A
C255        C495   1.479       .  S
N256        C257   1.354       .  A
C257        N258   1.367       .  A
C257        C372   1.478       .  S
O259        C275   1.277       .  A
O259       Zn265   2.029       .  S
C260        C327   1.487       .  S
C260        O276   1.273       .  A
C260        O273   1.275       .  A
O261        C274   1.275       .  A
O261       Cd268   2.075       .  S
O262        C280   1.276       .  A
O262       Cd271   2.078       .  S
O263        C277   1.284       .  A
O263       Cd267   2.124       .  S
O264        C275   1.281       .  A
O264       Cd267   2.118       .  S
Zn265       O276   2.014       .  S
Zn265       O278   2.006       .  S
Zn265       O270   1.945       .  S
O266        C277   1.279       .  A
O266       Cd271   2.078       .  S
Cd267       O269   2.116       .  S
Cd267       O270   2.029       .  S
Cd268       O272   2.070       .  S
Cd268       O281   2.105       .  S
Cd268       O270   2.012       .  S
O269        C279   1.281       .  A
O270       Cd271   2.006       .  S
Cd271       O273   2.095       .  S
O272        C279   1.277       .  A
C274        C540   1.476       .  S
C274        O278   1.273       .  A
C275        C879   1.491       .  S
C277        C588   1.493       .  S
C279        C303   1.497       .  S
C280        C396   1.494       .  S
C280        O281   1.278       .  A
N282        C286   1.364       .  A
N282        C283   1.361       .  A
N282        C300   1.444       .  S
C283        C951   1.476       .  S
C283        C284   1.381       .  A
C284        C285   1.368       .  A
C284        H287   1.082       .  S
C285        C286   1.380       .  A
C285        H288   1.082       .  S
C286        C612   1.478       .  S
C289        C290   1.397       .  A
C289        C294   1.403       .  A
C289        H305   1.084       .  S
C290        C291   1.402       .  A
C290        H306   1.083       .  S
C291        C301   1.403       .  A
C291        C292   1.412       .  A
C292        C298   1.411       .  A
C292        C293   1.417       .  A
C293        C295   1.413       .  A
C293        C294   1.409       .  A
C294        C302   1.401       .  A
C295        C304   1.415       .  A
C295        C296   1.407       .  A
C296        C297   1.405       .  A
C296        H307   1.083       .  S
C297        C298   1.406       .  A
C297        H308   1.084       .  S
C298        C299   1.411       .  A
C299        C300   1.409       .  A
C299        H309   1.084       .  S
C300        C301   1.403       .  A
C301        H310   1.081       .  S
C302        C303   1.410       .  A
C302        H311   1.084       .  S
C303        C304   1.413       .  A
C304        H312   1.084       .  S
C313        C314   1.398       .  A
C313        C318   1.403       .  A
C313        H329   1.084       .  S
C314        C315   1.404       .  A
C314        H330   1.083       .  S
C315        C325   1.401       .  A
C315        C316   1.409       .  A
C316        C322   1.413       .  A
C316        C317   1.416       .  A
C317        C319   1.412       .  A
C317        C318   1.411       .  A
C318        C326   1.402   1_565  A
C319        C328   1.412   1_565  A
C319        C320   1.405       .  A
C320        C321   1.404       .  A
C320        H331   1.083       .  S
C321        C322   1.405       .  A
C321        H332   1.084       .  S
C322        C323   1.412       .  A
C323        C324   1.410       .  A
C323        H333   1.084       .  S
C324        C325   1.411       .  A
C325        H334   1.083       .  S
C326        C327   1.408       .  A
C326        H335   1.085       .  S
C327        C328   1.409       .  A
C328        H336   1.083       .  S
C337        C338   1.401       .  A
C337        C342   1.404       .  A
C337        H353   1.084       .  S
C338        C339   1.404       .  A
C338        H354   1.083       .  S
C339        C349   1.407       .  A
C339        C340   1.412       .  A
C340        C346   1.413       .  A
C340        C341   1.418       .  A
C341        C343   1.411       .  A
C341        C342   1.412       .  A
C342        C350   1.407       .  A
C343        C352   1.410       .  A
C343        C344   1.406       .  A
C344        C345   1.403       .  A
C344        H355   1.083       .  S
C345        C346   1.405       .  A
C345        H356   1.084       .  S
C346        C347   1.410       .  A
C347        C348   1.406   1_556  A
C347        H357   1.084       .  S
C348        C349   1.404   1_554  A
C349        H358   1.084       .  S
C350        C351   1.409       .  A
C350        H359   1.084       .  S
C351        C352   1.412       .  A
C352        H360   1.084       .  S
C361        C362   1.404       .  A
C361        C366   1.406       .  A
C361        H377   1.083       .  S
C362        C363   1.405       .  A
C362        H378   1.083       .  S
C363        C373   1.413       .  A
C363        C364   1.414       .  A
C364        C370   1.410       .  A
C364        C365   1.416       .  A
C365        C367   1.411       .  A
C365        C366   1.412       .  A
C366        C374   1.412       .  A
C367        C376   1.402       .  A
C367        C368   1.403       .  A
C368        C369   1.397       .  A
C368        H379   1.083       .  S
C369        C370   1.403       .  A
C369        H380   1.084       .  S
C370        C371   1.400       .  A
C371        C372   1.406       .  A
C371        H381   1.086       .  S
C372        C373   1.407       .  A
C373        H382   1.084       .  S
C374        C375   1.412       .  A
C374        H383   1.083       .  S
C375        C376   1.410       .  A
C376        H384   1.084       .  S
C385        C386   1.398       .  A
C385        C390   1.403       .  A
C385        H401   1.084       .  S
C386        C387   1.404       .  A
C386        H402   1.083       .  S
C387        C397   1.403       .  A
C387        C388   1.410       .  A
C388        C394   1.412       .  A
C388        C389   1.417       .  A
C389        C391   1.413       .  A
C389        C390   1.412       .  A
C390        C398   1.403       .  A
C391        C400   1.414       .  A
C391        C392   1.406       .  A
C392        C393   1.405       .  A
C392        H403   1.083       .  S
C393        C394   1.406       .  A
C393        H404   1.084       .  S
C394        C395   1.413       .  A
C395        C396   1.411       .  A
C395        H405   1.084       .  S
C396        C397   1.409       .  A
C397        H406   1.084       .  S
C398        C399   1.405       .  A
C398        H407   1.085       .  S
C399        C400   1.409       .  A
C400        H408   1.084       .  S
C409        C410   1.402       .  A
C409        C414   1.404       .  A
C409        H425   1.084       .  S
C410        C411   1.405       .  A
C410        H426   1.082       .  S
C411        C421   1.410       .  A
C411        C412   1.412       .  A
C412        C418   1.411       .  A
C412        C413   1.416       .  A
C413        C415   1.410       .  A
C413        C414   1.412       .  A
C414        C422   1.409       .  A
C415        C424   1.404       .  A
C415        C416   1.405       .  A
C416        C417   1.400       .  A
C416        H427   1.083       .  S
C417        C418   1.404       .  A
C417        H428   1.084       .  S
C418        C419   1.405       .  A
C419        C420   1.411       .  A
C419        H429   1.084       .  S
C420        C421   1.409       .  A
C421        H430   1.083       .  S
C422        C423   1.407       .  A
C422        H431   1.084       .  S
C423        C424   1.412       .  A
C424        H432   1.084       .  S
C433        C434   1.403       .  A
C433        C438   1.405       .  A
C433        H449   1.084       .  S
C434        C435   1.404       .  A
C434        H450   1.083       .  S
C435        C445   1.411       .  A
C435        C436   1.413       .  A
C436        C442   1.410       .  A
C436        C437   1.417       .  A
C437        C439   1.412       .  A
C437        C438   1.411       .  A
C438        C446   1.410       .  A
C439        C448   1.407       .  A
C439        C440   1.404       .  A
C440        C441   1.400       .  A
C440        H451   1.084       .  S
C441        C442   1.404       .  A
C441        H452   1.084       .  S
C442        C443   1.404       .  A
C443        C444   1.408       .  A
C443        H453   1.085       .  S
C444        C445   1.406       .  A
C445        H454   1.083       .  S
C446        C447   1.412       .  A
C446        H455   1.084       .  S
C447        C448   1.410       .  A
C448        H456   1.084       .  S
C457        C458   1.401       .  A
C457        C462   1.405       .  A
C457        H473   1.083       .  S
C458        C459   1.403       .  A
C458        H474   1.083       .  S
C459        C469   1.411       .  A
C459        C460   1.415       .  A
C460        C466   1.409       .  A
C460        C461   1.417       .  A
C461        C463   1.413       .  A
C461        C462   1.409       .  A
C462        C470   1.405       .  A
C463        C472   1.410       .  A
C463        C464   1.404       .  A
C464        C465   1.401       .  A
C464        H475   1.084       .  S
C465        C466   1.405       .  A
C465        H476   1.084       .  S
C466        C467   1.404       .  A
C467        C468   1.411       .  A
C467        H477   1.085       .  S
C468        C469   1.405       .  A
C469        H478   1.083       .  S
C470        C471   1.412       .  A
C470        H479   1.084       .  S
C471        C472   1.410       .  A
C472        H480   1.084       .  S
C481        C482   1.397       .  A
C481        C486   1.403       .  A
C481        H497   1.084       .  S
C482        C483   1.403       .  A
C482        H498   1.084       .  S
C483        C493   1.399       .  A
C483        C484   1.410       .  A
C484        C490   1.413       .  A
C484        C485   1.410       .  A
C485        C487   1.410       .  A
C485        C486   1.413       .  A
C486        C494   1.402       .  A
C487        C496   1.401       .  A
C487        C488   1.404       .  A
C488        C489   1.399       .  A
C488        H499   1.084       .  S
C489        C490   1.403       .  A
C489        H500   1.084       .  S
C490        C491   1.404       .  A
C491        C492   1.405       .  A
C491        H501   1.084       .  S
C492        C493   1.405       .  A
C493        H502   1.085       .  S
C494        C495   1.405       .  A
C494        H503   1.084       .  S
C495        C496   1.409       .  A
C496        H504   1.084       .  S
C505        C506   1.401       .  A
C505        C510   1.404       .  A
C505        H521   1.084       .  S
C506        C507   1.404       .  A
C506        H522   1.083       .  S
C507        C517   1.409       .  A
C507        C508   1.412       .  A
C508        C514   1.411       .  A
C508        C509   1.417       .  A
C509        C511   1.414       .  A
C509        C510   1.412       .  A
C510        C518   1.406       .  A
C511        C520   1.410       .  A
C511        C512   1.404       .  A
C512        C513   1.403       .  A
C512        H523   1.084       .  S
C513        C514   1.406       .  A
C513        H524   1.084       .  S
C514        C515   1.409       .  A
C515        C516   1.412       .  A
C515        H525   1.084       .  S
C516        C517   1.408       .  A
C517        H526   1.083       .  S
C518        C519   1.403       .  A
C518        H527   1.084       .  S
C519        C520   1.405       .  A
C520        H528   1.084       .  S
C529        C530   1.399       .  A
C529        C534   1.403       .  A
C529        H545   1.083       .  S
C530        C531   1.404       .  A
C530        H546   1.084       .  S
C531        C541   1.401       .  A
C531        C532   1.410       .  A
C532        C538   1.413       .  A
C532        C533   1.412       .  A
C533        C535   1.410       .  A
C533        C534   1.413       .  A
C534        C542   1.405       .  A
C535        C544   1.401       .  A
C535        C536   1.404       .  A
C536        C537   1.399       .  A
C536        H547   1.084       .  S
C537        C538   1.403       .  A
C537        H548   1.084       .  S
C538        C539   1.405       .  A
C539        C540   1.405       .  A
C539        H549   1.084       .  S
C540        C541   1.407       .  A
C541        H550   1.085       .  S
C542        C543   1.405       .  A
C542        H551   1.084       .  S
C543        C544   1.409       .  A
C544        H552   1.084       .  S
C553        C554   1.398       .  A
C553        C558   1.404   1_545  A
C553        H569   1.083       .  S
C554        C555   1.402       .  A
C554        H570   1.084       .  S
C555        C565   1.402       .  A
C555        C556   1.412       .  A
C556        C562   1.411       .  A
C556        C557   1.415   1_545  A
C557        C559   1.413       .  A
C557        C558   1.409       .  A
C558        C566   1.401       .  A
C559        C568   1.412       .  A
C559        C560   1.405       .  A
C560        C561   1.404   1_565  A
C560        H571   1.084       .  S
C561        C562   1.405       .  A
C561        H572   1.083       .  S
C562        C563   1.410       .  A
C563        C564   1.409       .  A
C563        H573   1.083       .  S
C564        C565   1.407       .  A
C565        H574   1.085       .  S
C566        C567   1.411       .  A
C566        H575   1.083       .  S
C567        C568   1.411       .  A
C568        H576   1.084       .  S
C577        C578   1.399       .  A
C577        C582   1.403       .  A
C577        H593   1.083       .  S
C578        C579   1.404       .  A
C578        H594   1.083       .  S
C579        C589   1.404       .  A
C579        C580   1.410       .  A
C580        C586   1.413       .  A
C580        C581   1.417       .  A
C581        C583   1.411       .  A
C581        C582   1.412       .  A
C582        C590   1.405       .  A
C583        C592   1.410       .  A
C583        C584   1.406       .  A
C584        C585   1.404       .  A
C584        H595   1.084       .  S
C585        C586   1.405       .  A
C585        H596   1.083       .  S
C586        C587   1.413       .  A
C587        C588   1.411       .  A
C587        H597   1.084       .  S
C588        C589   1.409       .  A
C589        H598   1.084       .  S
C590        C591   1.405       .  A
C590        H599   1.083       .  S
C591        C592   1.410       .  A
C592        H600   1.084       .  S
C601        C602   1.401       .  A
C601        C606   1.404       .  A
C601        H617   1.084       .  S
C602        C603   1.404       .  A
C602        H618   1.083       .  S
C603        C613   1.405       .  A
C603        C604   1.411       .  A
C604        C610   1.412       .  A
C604        C605   1.415       .  A
C605        C607   1.410       .  A
C605        C606   1.413       .  A
C606        C614   1.408       .  A
C607        C616   1.403       .  A
C607        C608   1.404       .  A
C608        C609   1.399       .  A
C608        H619   1.084       .  S
C609        C610   1.403       .  A
C609        H620   1.083       .  S
C610        C611   1.406       .  A
C611        C612   1.405       .  A
C611        H621   1.083       .  S
C612        C613   1.407       .  A
C613        H622   1.085       .  S
C614        C615   1.408       .  A
C614        H623   1.084       .  S
C615        C616   1.410       .  A
C616        H624   1.084       .  S
C625        C626   1.402       .  A
C625        C630   1.405       .  A
C625        H641   1.083       .  S
C626        C627   1.405       .  A
C626        H642   1.084       .  S
C627        C637   1.406       .  A
C627        C628   1.411       .  A
C628        C634   1.412       .  A
C628        C629   1.413       .  A
C629        C631   1.411       .  A
C629        C630   1.413       .  A
C630        C638   1.408       .  A
C631        C640   1.401       .  A
C631        C632   1.403       .  A
C632        C633   1.398       .  A
C632        H643   1.084       .  S
C633        C634   1.403       .  A
C633        H644   1.084       .  S
C634        C635   1.402       .  A
C635        C636   1.406   1_556  A
C635        H645   1.085       .  S
C636        C637   1.408   1_554  A
C637        H646   1.084   1_556  S
C638        C639   1.408       .  A
C638        H647   1.084       .  S
C639        C640   1.407       .  A
C640        H648   1.084       .  S
C649        C650   1.398   1_556  A
C649        C654   1.403       .  A
C649        H665   1.083       .  S
C650        C651   1.404       .  A
C650        H666   1.084       .  S
C651        C661   1.402       .  A
C651        C652   1.410       .  A
C652        C658   1.412       .  A
C652        C653   1.414       .  A
C653        C655   1.411       .  A
C653        C654   1.411   1_554  A
C654        C662   1.403       .  A
C655        C664   1.407   1_554  A
C655        C656   1.404       .  A
C656        C657   1.402       .  A
C656        H667   1.084       .  S
C657        C658   1.405       .  A
C657        H668   1.083       .  S
C658        C659   1.409       .  A
C659        C660   1.409       .  A
C659        H669   1.083       .  S
C660        C661   1.411       .  A
C661        H670   1.084       .  S
C662        C663   1.404       .  A
C662        H671   1.079       .  S
C663        C664   1.407       .  A
C664        H672   1.084       .  S
C673        C674   1.396       .  A
C673        C678   1.402       .  A
C673        H689   1.083       .  S
C674        C675   1.402       .  A
C674        H690   1.084       .  S
C675        C685   1.397       .  A
C675        C676   1.411       .  A
C676        C682   1.413       .  A
C676        C677   1.412       .  A
C677        C679   1.412       .  A
C677        C678   1.411       .  A
C678        C686   1.398       .  A
C679        C688   1.408       .  A
C679        C680   1.405       .  A
C680        C681   1.402       .  A
C680        H691   1.084       .  S
C681        C682   1.405       .  A
C681        H692   1.083       .  S
C682        C683   1.409       .  A
C683        C684   1.405       .  A
C683        H693   1.084       .  S
C684        C685   1.402       .  A
C685        H694   1.086       .  S
C686        C687   1.406       .  A
C686        H695   1.084       .  S
C687        C688   1.409       .  A
C688        H696   1.084       .  S
C697        C698   1.402   1_556  A
C697        C702   1.405       .  A
C697        H713   1.084       .  S
C698        C699   1.404       .  A
C698        H714   1.084       .  S
C699        C709   1.409       .  A
C699        C700   1.414       .  A
C700        C706   1.409       .  A
C700        C701   1.412       .  A
C701        C703   1.414       .  A
C701        C702   1.411   1_554  A
C702        C710   1.405       .  A
C703        C712   1.402   1_554  A
C703        C704   1.402       .  A
C704        C705   1.397       .  A
C704        H715   1.083       .  S
C705        C706   1.403       .  A
C705        H716   1.084       .  S
C706        C707   1.397       .  A
C707        C708   1.409       .  A
C707        H717   1.084       .  S
C708        C709   1.408       .  A
C709        H718   1.084       .  S
C710        C711   1.407       .  A
C710        H719   1.085       .  S
C711        C712   1.401       .  A
C712        H720   1.084       .  S
C721        C722   1.399       .  A
C721        C726   1.404       .  A
C721        H737   1.083       .  S
C722        C723   1.403       .  A
C722        H738   1.084       .  S
C723        C733   1.402       .  A
C723        C724   1.412       .  A
C724        C730   1.412       .  A
C724        C725   1.412       .  A
C725        C727   1.412       .  A
C725        C726   1.412       .  A
C726        C734   1.403       .  A
C727        C736   1.403       .  A
C727        C728   1.403       .  A
C728        C729   1.399       .  A
C728        H739   1.083       .  S
C729        C730   1.403       .  A
C729        H740   1.083       .  S
C730        C731   1.403       .  A
C731        C732   1.402       .  A
C731        H741   1.084       .  S
C732        C733   1.403       .  A
C733        H742   1.085       .  S
C734        C735   1.406       .  A
C734        H743   1.084       .  S
C735        C736   1.405       .  A
C736        H744   1.084       .  S
C745        C746   1.401       .  A
C745        C750   1.404       .  A
C745        H761   1.084       .  S
C746        C747   1.404       .  A
C746        H762   1.084       .  S
C747        C757   1.406       .  A
C747        C748   1.412       .  A
C748        C754   1.412       .  A
C748        C749   1.413       .  A
C749        C751   1.411       .  A
C749        C750   1.412       .  A
C750        C758   1.406       .  A
C751        C760   1.401       .  A
C751        C752   1.403       .  A
C752        C753   1.398       .  A
C752        H763   1.084       .  S
C753        C754   1.403       .  A
C753        H764   1.083       .  S
C754        C755   1.403       .  A
C755        C756   1.405       .  A
C755        H765   1.084       .  S
C756        C757   1.407       .  A
C757        H766   1.084       .  S
C758        C759   1.409       .  A
C758        H767   1.084       .  S
C759        C760   1.408       .  A
C760        H768   1.084       .  S
C769        C770   1.400       .  A
C769        C774   1.404       .  A
C769        H785   1.083       .  S
C770        C771   1.404       .  A
C770        H786   1.084       .  S
C771        C781   1.406       .  A
C771        C772   1.411       .  A
C772        C778   1.412       .  A
C772        C773   1.416       .  A
C773        C775   1.411       .  A
C773        C774   1.413       .  A
C774        C782   1.407       .  A
C775        C784   1.406       .  A
C775        C776   1.404       .  A
C776        C777   1.401       .  A
C776        H787   1.084       .  S
C777        C778   1.405       .  A
C777        H788   1.083       .  S
C778        C779   1.409       .  A
C779        C780   1.409       .  A
C779        H789   1.084       .  S
C780        C781   1.408       .  A
C781        H790   1.085       .  S
C782        C783   1.405       .  A
C782        H791   1.084       .  S
C783        C784   1.407       .  A
C784        H792   1.085       .  S
C793        C794   1.400       .  A
C793        C798   1.405       .  A
C793        H809   1.084       .  S
C794        C795   1.403       .  A
C794        H810   1.084       .  S
C795        C805   1.405   1_556  A
C795        C796   1.412       .  A
C796        C802   1.412       .  A
C796        C797   1.417       .  A
C797        C799   1.413       .  A
C797        C798   1.410       .  A
C798        C806   1.404       .  A
C799        C808   1.412       .  A
C799        C800   1.405       .  A
C800        C801   1.403       .  A
C800        H811   1.083       .  S
C801        C802   1.404       .  A
C801        H812   1.084       .  S
C802        C803   1.409       .  A
C803        C804   1.406   1_556  A
C803        H813   1.083       .  S
C804        C805   1.403       .  A
C805        H814   1.083       .  S
C806        C807   1.412       .  A
C806        H815   1.084       .  S
C807        C808   1.410       .  A
C808        H816   1.083       .  S
C817        C818   1.400       .  A
C817        C822   1.404       .  A
C817        H833   1.083       .  S
C818        C819   1.404       .  A
C818        H834   1.084       .  S
C819        C829   1.406   1_565  A
C819        C820   1.410   1_565  A
C820        C826   1.413       .  A
C820        C821   1.418   1_545  A
C821        C823   1.411       .  A
C821        C822   1.412       .  A
C822        C830   1.407       .  A
C823        C832   1.410       .  A
C823        C824   1.405   1_565  A
C824        C825   1.403       .  A
C824        H835   1.084       .  S
C825        C826   1.405       .  A
C825        H836   1.083       .  S
C826        C827   1.413       .  A
C827        C828   1.411       .  A
C827        H837   1.083       .  S
C828        C829   1.411       .  A
C829        H838   1.084       .  S
C830        C831   1.405       .  A
C830        H839   1.084       .  S
C831        C832   1.409       .  A
C832        H840   1.085       .  S
C841        C842   1.395       .  A
C841        C846   1.402   1_565  A
C841        H857   1.084       .  S
C842        C843   1.402       .  A
C842        H858   1.083       .  S
C843        C853   1.397       .  A
C843        C844   1.410       .  A
C844        C850   1.412       .  A
C844        C845   1.415       .  A
C845        C847   1.412   1_565  A
C845        C846   1.410   1_565  A
C846        C854   1.398       .  A
C847        C856   1.414       .  A
C847        C848   1.406       .  A
C848        C849   1.406   1_545  A
C848        H859   1.083       .  S
C849        C850   1.406       .  A
C849        H860   1.084       .  S
C850        C851   1.414       .  A
C851        C852   1.412       .  A
C851        H861   1.084       .  S
C852        C853   1.408       .  A
C853        H862   1.084       .  S
C854        C855   1.407       .  A
C854        H863   1.084       .  S
C855        C856   1.411       .  A
C856        H864   1.084       .  S
C865        C866   1.402       .  A
C865        C870   1.405       .  A
C865        H881   1.084       .  S
C866        C867   1.404       .  A
C866        H882   1.083       .  S
C867        C877   1.411       .  A
C867        C868   1.414       .  A
C868        C874   1.410       .  A
C868        C869   1.418       .  A
C869        C871   1.414   1_565  A
C869        C870   1.410       .  A
C870        C878   1.407   1_565  A
C871        C880   1.411       .  A
C871        C872   1.405       .  A
C872        C873   1.402       .  A
C872        H883   1.083       .  S
C873        C874   1.405   1_545  A
C873        H884   1.084       .  S
C874        C875   1.406       .  A
C875        C876   1.409       .  A
C875        H885   1.085       .  S
C876        C877   1.405       .  A
C877        H886   1.084       .  S
C878        C879   1.409       .  A
C878        H887   1.084       .  S
C879        C880   1.409       .  A
C880        H888   1.084       .  S
C889        C890   1.404       .  A
C889        C894   1.406       .  A
C889        H905   1.084       .  S
C890        C891   1.406       .  A
C890        H906   1.083       .  S
C891        C901   1.413       .  A
C891        C892   1.412       .  A
C892        C898   1.410       .  A
C892        C893   1.417       .  A
C893        C895   1.413       .  A
C893        C894   1.412       .  A
C894        C902   1.410       .  A
C895        C904   1.405       .  A
C895        C896   1.402       .  A
C896        C897   1.399       .  A
C896        H907   1.083       .  S
C897        C898   1.404       .  A
C897        H908   1.084       .  S
C898        C899   1.404       .  A
C899        C900   1.409       .  A
C899        H909   1.085       .  S
C900        C901   1.412       .  A
C901        H910   1.083       .  S
C902        C903   1.408       .  A
C902        H911   1.084       .  S
C903        C904   1.401       .  A
C904        H912   1.083       .  S
C913        C914   1.397       .  A
C913        C918   1.403       .  A
C913        H929   1.083       .  S
C914        C915   1.402       .  A
C914        H930   1.084       .  S
C915        C925   1.402       .  A
C915        C916   1.412       .  A
C916        C922   1.412       .  A
C916        C917   1.414       .  A
C917        C919   1.413       .  A
C917        C918   1.410       .  A
C918        C926   1.400       .  A
C919        C928   1.410       .  A
C919        C920   1.405       .  A
C920        C921   1.403       .  A
C920        H931   1.084       .  S
C921        C922   1.405       .  A
C921        H932   1.083       .  S
C922        C923   1.409       .  A
C923        C924   1.406       .  A
C923        H933   1.084       .  S
C924        C925   1.403       .  A
C925        H934   1.085       .  S
C926        C927   1.407       .  A
C926        H935   1.084       .  S
C927        C928   1.409       .  A
C928        H936   1.084       .  S
C937        C938   1.399       .  A
C937        C942   1.403       .  A
C937        H953   1.083       .  S
C938        C939   1.404       .  A
C938        H954   1.084       .  S
C939        C949   1.403       .  A
C939        C940   1.410       .  A
C940        C946   1.413       .  A
C940        C941   1.416       .  A
C941        C943   1.411       .  A
C941        C942   1.412       .  A
C942        C950   1.405       .  A
C943        C952   1.408       .  A
C943        C944   1.405       .  A
C944        C945   1.402       .  A
C944        H955   1.084       .  S
C945        C946   1.405       .  A
C945        H956   1.083       .  S
C946        C947   1.410       .  A
C947        C948   1.410       .  A
C947        H957   1.084       .  S
C948        C949   1.409       .  A
C949        H958   1.085       .  S
C950        C951   1.404       .  A
C950        H959   1.084       .  S
C951        C952   1.407       .  A
C952        H960   1.085       .  S
C961        C962   1.395       .  A
C961        C966   1.402       .  A
C961        H977   1.083       .  S
C962        C963   1.401       .  A
C962        H978   1.084       .  S
C963        C973   1.398       .  A
C963        C964   1.412       .  A
C964        C970   1.413       .  A
C964        C965   1.413       .  A
C965        C967   1.413       .  A
C965        C966   1.410       .  A
C966        C974   1.396       .  A
C967        C976   1.412       .  A
C967        C968   1.405       .  A
C968        C969   1.404       .  A
C968        H979   1.084       .  S
C969        C970   1.406       .  A
C969        H980   1.083       .  S
C970        C971   1.411       .  A
C971        C972   1.408       .  A
C971        H981   1.084       .  S
C972        C973   1.401       .  A
C973        H982   1.085       .  S
C974        C975   1.405       .  A
C974        H983   1.085       .  S
C975        C976   1.409       .  A
C976        H984   1.084       .  S
C985        C986   1.401       .  A
C985        C990   1.404       .  A
C985       H1001   1.083       .  S
C986        C987   1.404       .  A
C986       H1002   1.084       .  S
C987        C997   1.405       .  A
C987        C988   1.411       .  A
C988        C994   1.411       .  A
C988        C989   1.414       .  A
C989        C991   1.410       .  A
C989        C990   1.413       .  A
C990        C998   1.408       .  A
C991       C1000   1.401       .  A
C991        C992   1.404       .  A
C992        C993   1.398       .  A
C992       H1003   1.084       .  S
C993        C994   1.404       .  A
C993       H1004   1.083       .  S
C994        C995   1.403       .  A
C995        C996   1.409       .  A
C995       H1005   1.084       .  S
C996        C997   1.408       .  A
C997       H1006   1.084       .  S
C998        C999   1.407       .  A
C998       H1007   1.083       .  S
C999       C1000   1.408       .  A
C1000      H1008   1.085       .  S
C1009      C1010   1.403       .  A
C1009      C1014   1.405       .  A
C1009      H1025   1.083       .  S
C1010      C1011   1.405   1_565  A
C1010      H1026   1.084       .  S
C1011      C1021   1.410       .  A
C1011      C1012   1.412       .  A
C1012      C1018   1.412       .  A
C1012      C1013   1.416   1_545  A
C1013      C1015   1.410       .  A
C1013      C1014   1.412       .  A
C1014      C1022   1.411       .  A
C1015      C1024   1.403       .  A
C1015      C1016   1.403   1_565  A
C1016      C1017   1.398       .  A
C1016      H1027   1.084       .  S
C1017      C1018   1.403       .  A
C1017      H1028   1.083       .  S
C1018      C1019   1.404       .  A
C1019      C1020   1.404       .  A
C1019      H1029   1.084       .  S
C1020      C1021   1.407       .  A
C1021      H1030   1.084       .  S
C1022      C1023   1.411       .  A
C1022      H1031   1.083       .  S
C1023      C1024   1.410       .  A
C1024      H1032   1.084       .  S
C1033      C1034   1.403       .  A
C1033      C1038   1.405       .  A
C1033      H1049   1.083       .  S
C1034      C1035   1.405       .  A
C1034      H1050   1.083       .  S
C1035      C1045   1.413       .  A
C1035      C1036   1.414       .  A
C1036      C1042   1.409       .  A
C1036      C1037   1.418       .  A
C1037      C1039   1.414       .  A
C1037      C1038   1.410       .  A
C1038      C1046   1.407       .  A
C1039      C1048   1.409       .  A
C1039      C1040   1.403       .  A
C1040      C1041   1.400       .  A
C1040      H1051   1.084       .  S
C1041      C1042   1.405       .  A
C1041      H1052   1.083       .  S
C1042      C1043   1.404       .  A
C1043      C1044   1.412       .  A
C1043      H1053   1.084       .  S
C1044      C1045   1.410       .  A
C1045      H1054   1.084       .  S
C1046      C1047   1.407       .  A
C1046      H1055   1.084       .  S
C1047      C1048   1.405       .  A
C1048      H1056   1.085       .  S
C1057      C1058   1.401       .  A
C1057      C1062   1.404       .  A
C1057      H1073   1.083       .  S
C1058      C1059   1.405       .  A
C1058      H1074   1.084       .  S
C1059      C1069   1.406       .  A
C1059      C1060   1.410       .  A
C1060      C1066   1.413       .  A
C1060      C1061   1.416       .  A
C1061      C1063   1.409       .  A
C1061      C1062   1.413       .  A
C1062      C1070   1.410       .  A
C1063      C1072   1.404       .  A
C1063      C1064   1.404       .  A
C1064      C1065   1.401       .  A
C1064      H1075   1.084       .  S
C1065      C1066   1.404       .  A
C1065      H1076   1.084       .  S
C1066      C1067   1.409       .  A
C1067      C1068   1.410       .  A
C1067      H1077   1.084       .  S
C1068      C1069   1.412       .  A
C1069      H1078   1.084       .  S
C1070      C1071   1.406       .  A
C1070      H1079   1.080       .  S
C1071      C1072   1.409       .  A
C1072      H1080   1.085       .  S
C1081      C1082   1.399       .  A
C1081      C1086   1.403       .  A
C1081      H1097   1.084       .  S
C1082      C1083   1.404       .  A
C1082      H1098   1.083       .  S
C1083      C1093   1.403       .  A
C1083      C1084   1.411       .  A
C1084      C1090   1.412       .  A
C1084      C1085   1.413       .  A
C1085      C1087   1.411       .  A
C1085      C1086   1.412       .  A
C1086      C1094   1.403       .  A
C1087      C1096   1.405       .  A
C1087      C1088   1.404       .  A
C1088      C1089   1.401       .  A
C1088      H1099   1.084       .  S
C1089      C1090   1.404       .  A
C1089      H1100   1.084       .  S
C1090      C1091   1.406       .  A
C1091      C1092   1.408       .  A
C1091      H1101   1.084       .  S
C1092      C1093   1.407       .  A
C1093      H1102   1.084       .  S
C1094      C1095   1.406       .  A
C1094      H1103   1.084       .  S
C1095      C1096   1.408       .  A
C1096      H1104   1.084       .  S
C1105      C1106   1.404       .  A
C1105      C1110   1.406       .  A
C1105      H1121   1.083       .  S
C1106      C1107   1.405       .  A
C1106      H1122   1.084       .  S
C1107      C1117   1.409       .  A
C1107      C1108   1.412       .  A
C1108      C1114   1.414       .  A
C1108      C1109   1.416       .  A
C1109      C1111   1.409       .  A
C1109      C1110   1.413       .  A
C1110      C1118   1.414       .  A
C1111      C1120   1.401       .  A
C1111      C1112   1.404       .  A
C1112      C1113   1.398       .  A
C1112      H1123   1.083       .  S
C1113      C1114   1.402       .  A
C1113      H1124   1.084       .  S
C1114      C1115   1.403       .  A
C1115      C1116   1.401       .  A
C1115      H1125   1.084       .  S
C1116      C1117   1.406       .  A
C1117      H1126   1.084       .  S
C1118      C1119   1.412       .  A
C1118      H1127   1.084       .  S
C1119      C1120   1.410       .  A
C1120      H1128   1.084       .  S
C1129      C1130   1.400       .  A
C1129      C1134   1.404       .  A
C1129      H1145   1.083       .  S
C1130      C1131   1.404       .  A
C1130      H1146   1.084       .  S
C1131      C1141   1.406       .  A
C1131      C1132   1.412       .  A
C1132      C1138   1.412       .  A
C1132      C1133   1.416       .  A
C1133      C1135   1.412       .  A
C1133      C1134   1.412       .  A
C1134      C1142   1.406       .  A
C1135      C1144   1.408       .  A
C1135      C1136   1.405       .  A
C1136      C1137   1.402       .  A
C1136      H1147   1.084       .  S
C1137      C1138   1.405       .  A
C1137      H1148   1.083       .  S
C1138      C1139   1.409       .  A
C1139      C1140   1.406       .  A
C1139      H1149   1.084       .  S
C1140      C1141   1.406       .  A
C1141      H1150   1.085       .  S
C1142      C1143   1.408       .  A
C1142      H1151   1.084       .  S
C1143      C1144   1.410       .  A
C1144      H1152   1.085       .  S
C1153      C1154   1.398       .  A
C1153      C1158   1.403       .  A
C1153      H1169   1.084       .  S
C1154      C1155   1.404       .  A
C1154      H1170   1.084       .  S
C1155      C1165   1.399       .  A
C1155      C1156   1.409       .  A
C1156      C1162   1.414       .  A
C1156      C1157   1.411       .  A
C1157      C1159   1.409       .  A
C1157      C1158   1.414       .  A
C1158      C1166   1.405       .  A
C1159      C1168   1.400       .  A
C1159      C1160   1.404       .  A
C1160      C1161   1.399       .  A
C1160      H1171   1.083       .  S
C1161      C1162   1.403       .  A
C1161      H1172   1.084       .  S
C1162      C1163   1.405       .  A
C1163      C1164   1.405       .  A
C1163      H1173   1.084       .  S
C1164      C1165   1.408       .  A
C1165      H1174   1.085       .  S
C1166      C1167   1.405       .  A
C1166      H1175   1.084       .  S
C1167      C1168   1.408       .  A
C1168      H1176   1.084       .  S
C1177      C1178   1.397       .  A
C1177      C1182   1.402       .  A
C1177      H1193   1.084       .  S
C1178      C1179   1.403       .  A
C1178      H1194   1.083       .  S
C1179      C1189   1.400       .  A
C1179      C1180   1.410       .  A
C1180      C1186   1.412       .  A
C1180      C1181   1.414       .  A
C1181      C1183   1.413       .  A
C1181      C1182   1.411       .  A
C1182      C1190   1.400       .  A
C1183      C1192   1.410       .  A
C1183      C1184   1.405       .  A
C1184      C1185   1.403       .  A
C1184      H1195   1.083       .  S
C1185      C1186   1.405       .  A
C1185      H1196   1.084       .  S
C1186      C1187   1.411       .  A
C1187      C1188   1.411       .  A
C1187      H1197   1.084       .  S
C1188      C1189   1.409       .  A
C1189      H1198   1.084       .  S
C1190      C1191   1.404       .  A
C1190      H1199   1.085       .  S
C1191      C1192   1.407       .  A
C1192      H1200   1.084       .  S
C1201      C1202   1.403       .  A
C1201      C1206   1.405       .  A
C1201      H1217   1.083       .  S
C1202      C1203   1.405       .  A
C1202      H1218   1.084       .  S
C1203      C1213   1.409   1_554  A
C1203      C1204   1.411       .  A
C1204      C1210   1.413       .  A
C1204      C1205   1.417       .  A
C1205      C1207   1.410       .  A
C1205      C1206   1.413       .  A
C1206      C1214   1.411       .  A
C1207      C1216   1.403       .  A
C1207      C1208   1.404       .  A
C1208      C1209   1.399       .  A
C1208      H1219   1.084       .  S
C1209      C1210   1.404       .  A
C1209      H1220   1.083   1_554  S
C1210      C1211   1.406   1_554  A
C1211      C1212   1.405       .  A
C1211      H1221   1.084       .  S
C1212      C1213   1.407       .  A
C1213      H1222   1.084       .  S
C1214      C1215   1.411       .  A
C1214      H1223   1.084       .  S
C1215      C1216   1.409       .  A
C1216      H1224   1.084       .  S
C1225      C1226   1.402       .  A
C1225      C1230   1.406       .  A
C1225      H1241   1.084       .  S
C1226      C1227   1.404       .  A
C1226      H1242   1.084       .  S
C1227      C1237   1.410       .  A
C1227      C1228   1.413       .  A
C1228      C1234   1.411       .  A
C1228      C1229   1.417       .  A
C1229      C1231   1.413       .  A
C1229      C1230   1.410       .  A
C1230      C1238   1.407       .  A
C1231      C1240   1.408       .  A
C1231      C1232   1.404       .  A
C1232      C1233   1.400       .  A
C1232      H1243   1.083       .  S
C1233      C1234   1.404       .  A
C1233      H1244   1.083       .  S
C1234      C1235   1.405       .  A
C1235      C1236   1.406       .  A
C1235      H1245   1.085       .  S
C1236      C1237   1.407       .  A
C1237      H1246   1.084       .  S
C1238      C1239   1.413       .  A
C1238      H1247   1.084       .  S
C1239      C1240   1.408       .  A
C1240      H1248   1.084       .  S
C1249      C1250   1.403       .  A
C1249      C1254   1.405       .  A
C1249      H1265   1.083       .  S
C1250      C1251   1.406       .  A
C1250      H1266   1.084       .  S
C1251      C1261   1.410       .  A
C1251      C1252   1.410       .  A
C1252      C1258   1.412       .  A
C1252      C1253   1.419       .  A
C1253      C1255   1.410       .  A
C1253      C1254   1.413       .  A
C1254      C1262   1.412       .  A
C1255      C1264   1.407       .  A
C1255      C1256   1.405       .  A
C1256      C1257   1.401       .  A
C1256      H1267   1.084       .  S
C1257      C1258   1.404       .  A
C1257      H1268   1.083       .  S
C1258      C1259   1.410       .  A
C1259      C1260   1.410       .  A
C1259      H1269   1.084       .  S
C1260      C1261   1.414       .  A
C1261      H1270   1.084       .  S
C1262      C1263   1.408       .  A
C1262      H1271   1.081       .  S
C1263      C1264   1.410       .  A
C1264      H1272   1.085       .  S
C1273      C1274   1.400       .  A
C1273      C1278   1.403       .  A
C1273      H1289   1.084       .  S
C1274      C1275   1.404       .  A
C1274      H1290   1.084       .  S
C1275      C1285   1.405       .  A
C1275      C1276   1.411       .  A
C1276      C1282   1.411       .  A
C1276      C1277   1.415       .  A
C1277      C1279   1.412       .  A
C1277      C1278   1.412       .  A
C1278      C1286   1.404       .  A
C1279      C1288   1.407       .  A
C1279      C1280   1.404       .  A
C1280      C1281   1.401       .  A
C1280      H1291   1.084       .  S
C1281      C1282   1.405       .  A
C1281      H1292   1.084       .  S
C1282      C1283   1.407       .  A
C1283      C1284   1.410   1_556  A
C1283      H1293   1.084       .  S
C1284      C1285   1.409   1_554  A
C1285      H1294   1.084   1_556  S
C1286      C1287   1.406       .  A
C1286      H1295   1.084       .  S
C1287      C1288   1.407       .  A
C1288      H1296   1.085       .  S
C1297      C1298   1.404       .  A
C1297      C1302   1.406       .  A
C1297      H1313   1.083       .  S
C1298      C1299   1.405   1_554  A
C1298      H1314   1.083       .  S
C1299      C1309   1.411       .  A
C1299      C1300   1.412   1_556  A
C1300      C1306   1.413   1_554  A
C1300      C1301   1.419       .  A
C1301      C1303   1.409       .  A
C1301      C1302   1.413       .  A
C1302      C1310   1.415       .  A
C1303      C1312   1.405       .  A
C1303      C1304   1.405       .  A
C1304      C1305   1.400   1_554  A
C1304      H1315   1.084       .  S
C1305      C1306   1.403       .  A
C1305      H1316   1.084       .  S
C1306      C1307   1.407       .  A
C1307      C1308   1.404       .  A
C1307      H1317   1.083       .  S
C1308      C1309   1.407       .  A
C1309      H1318   1.084       .  S
C1310      C1311   1.412       .  A
C1310      H1319   1.083       .  S
C1311      C1312   1.413       .  A
C1312      H1320   1.084       .  S
C1321      C1322   1.397       .  A
C1321      C1326   1.403       .  A
C1321      H1337   1.084       .  S
C1322      C1323   1.403       .  A
C1322      H1338   1.083       .  S
C1323      C1333   1.400       .  A
C1323      C1324   1.411       .  A
C1324      C1330   1.412       .  A
C1324      C1325   1.412       .  A
C1325      C1327   1.413       .  A
C1325      C1326   1.411       .  A
C1326      C1334   1.399       .  A
C1327      C1336   1.408       .  A
C1327      C1328   1.404       .  A
C1328      C1329   1.401       .  A
C1328      H1339   1.083       .  S
C1329      C1330   1.404       .  A
C1329      H1340   1.083       .  S
C1330      C1331   1.407       .  A
C1331      C1332   1.408       .  A
C1331      H1341   1.084       .  S
C1332      C1333   1.407       .  A
C1333      H1342   1.084       .  S
C1334      C1335   1.404       .  A
C1334      H1343   1.086       .  S
C1335      C1336   1.404       .  A
C1336      H1344   1.084       .  S
C1345      C1346   1.404       .  A
C1345      C1350   1.405   1_565  A
C1345      H1361   1.084       .  S
C1346      C1347   1.406       .  A
C1346      H1362   1.083       .  S
C1347      C1357   1.413       .  A
C1347      C1348   1.412       .  A
C1348      C1354   1.411   1_565  A
C1348      C1349   1.418   1_565  A
C1349      C1351   1.411       .  A
C1349      C1350   1.412       .  A
C1350      C1358   1.412   1_554  A
C1351      C1360   1.405   1_554  A
C1351      C1352   1.403       .  A
C1352      C1353   1.400       .  A
C1352      H1363   1.083   1_554  S
C1353      C1354   1.404       .  A
C1353      H1364   1.084       .  S
C1354      C1355   1.406   1_545  A
C1355      C1356   1.411       .  A
C1355      H1365   1.084       .  S
C1356      C1357   1.412       .  A
C1357      H1366   1.083       .  S
C1358      C1359   1.408       .  A
C1358      H1367   1.084       .  S
C1359      C1360   1.405       .  A
C1360      H1368   1.084       .  S
C1369      C1370   1.399       .  A
C1369      C1374   1.403       .  A
C1369      H1385   1.084       .  S
C1370      C1371   1.403       .  A
C1370      H1386   1.084       .  S
C1371      C1381   1.401       .  A
C1371      C1372   1.410       .  A
C1372      C1378   1.414       .  A
C1372      C1373   1.413       .  A
C1373      C1375   1.410       .  A
C1373      C1374   1.413       .  A
C1374      C1382   1.405   1_554  A
C1375      C1384   1.404   1_554  A
C1375      C1376   1.405       .  A
C1376      C1377   1.401       .  A
C1376      H1387   1.084   1_554  S
C1377      C1378   1.403       .  A
C1377      H1388   1.083       .  S
C1378      C1379   1.407       .  A
C1379      C1380   1.404       .  A
C1379      H1389   1.084       .  S
C1380      C1381   1.406       .  A
C1381      H1390   1.085       .  S
C1382      C1383   1.407       .  A
C1382      H1391   1.084       .  S
C1383      C1384   1.410       .  A
C1384      H1392   1.084       .  S
C1393      C1394   1.394       .  A
C1393      C1398   1.401       .  A
C1393      H1409   1.084       .  S
C1394      C1395   1.402       .  A
C1394      H1410   1.083       .  S
C1395      C1405   1.397       .  A
C1395      C1396   1.410       .  A
C1396      C1402   1.412       .  A
C1396      C1397   1.412       .  A
C1397      C1399   1.414       .  A
C1397      C1398   1.411       .  A
C1398      C1406   1.395       .  A
C1399      C1408   1.410       .  A
C1399      C1400   1.405       .  A
C1400      C1401   1.403       .  A
C1400      H1411   1.083       .  S
C1401      C1402   1.406       .  A
C1401      H1412   1.083       .  S
C1402      C1403   1.410       .  A
C1403      C1404   1.410       .  A
C1403      H1413   1.084       .  S
C1404      C1405   1.406       .  A
C1405      H1414   1.084       .  S
C1406      C1407   1.401       .  A
C1406      H1415   1.086       .  S
C1407      C1408   1.406       .  A
C1408      H1416   1.084       .  S
C1417      C1418   1.403       .  A
C1417      C1422   1.405   1_565  A
C1417      H1433   1.084       .  S
C1418      C1419   1.406       .  A
C1418      H1434   1.083       .  S
C1419      C1429   1.409       .  A
C1419      C1420   1.411       .  A
C1420      C1426   1.411       .  A
C1420      C1421   1.413   1_565  A
C1421      C1423   1.411       .  A
C1421      C1422   1.413       .  A
C1422      C1430   1.409       .  A
C1423      C1432   1.399       .  A
C1423      C1424   1.402       .  A
C1424      C1425   1.396       .  A
C1424      H1435   1.083       .  S
C1425      C1426   1.402   1_545  A
C1425      H1436   1.084       .  S
C1426      C1427   1.399       .  A
C1427      C1428   1.408       .  A
C1427      H1437   1.084       .  S
C1428      C1429   1.411       .  A
C1429      H1438   1.083       .  S
C1430      C1431   1.408   1_655  A
C1430      H1439   1.085   1_655  S
C1431      C1432   1.405   1_455  A
C1432      H1440   1.084       .  S
