geometry optimzed in LAMMPS
_audit_creation_date              2020-11-30 
_audit_creation_method            'lammps2cif' 
_symmetry_space_group_name_H-M    'P1' 
_symmetry_Int_Tables_number       1 
_symmetry_cell_setting            triclinic 
loop_ 
_symmetry_equiv_pos_as_xyz 
  x,y,z 
_cell_length_a                    44.92031815 
_cell_length_b                    45.29940263233509 
_cell_length_c                    83.62125589621152 
_cell_angle_alpha                 89.47201758586723 
_cell_angle_beta                  88.87890829672628 
_cell_angle_gamma                 89.98928367593814 
loop_ 
_atom_site_label 
_atom_site_type_symbol 
_atom_site_fract_x 
_atom_site_fract_y 
_atom_site_fract_z 
_atom_site_charge 
O1          O  0.39889721  0.13978989  0.49785697    -0.58100
C2          C  0.44077598  0.16788740  0.46551382     0.74500
O3          O  0.36095619  0.10126917  0.45493218    -0.59200
C4          C  0.37905841  0.12241886  0.50328301     0.74500
C5          C  0.34850568  0.19675618  0.46557193     0.76900
Cd6        Cd  0.38266215  0.14345300  0.47068098     1.37500
O7          O  0.42220553  0.16736716  0.45433850    -0.58100
O8          O  0.35136892  0.18552345  0.47932143    -0.56900
C9          C  0.38631718  0.09052522  0.45128633     0.76900
O10         O  0.35726747  0.18084926  0.45404473    -0.59300
O11         O  0.43191288  0.15817998  0.47899803    -0.57700
O12         O  0.35924763  0.11488028  0.49349202    -0.57700
O13         O  0.40829539  0.10428378  0.45660612    -0.56900
O14         O  0.58042316  0.15328069  0.45056540    -0.58100
C15         C  0.62019876  0.12031120  0.49941738     0.74500
O16         O  0.65388218  0.10062988  0.45475712    -0.59200
C17         C  0.56620521  0.16657548  0.46152178     0.74500
C18         C  0.66017178  0.19598320  0.46235870     0.76900
Cd19       Cd  0.62459399  0.14277601  0.46671942     1.37500
O20         O  0.59795141  0.12839237  0.49145014    -0.58100
O21         O  0.65679193  0.18314722  0.47570129    -0.56900
C22         C  0.63219585  0.09077524  0.44690044     0.76900
O23         O  0.64994494  0.18232367  0.45053441    -0.59300
O24         O  0.64495713  0.12090497  0.49189896    -0.57700
O25         O  0.57993545  0.17024547  0.47441982    -0.57700
O26         O  0.60828688  0.10523723  0.44802517    -0.56900
O27         O  0.39087998  0.36978606  0.49329600    -0.58100
C28         C  0.44164098  0.36277207  0.46254090     0.74500
O29         O  0.37072950  0.33126238  0.45068488    -0.59200
C30         C  0.37763412  0.39259341  0.49830191     0.74500
C31         C  0.37589252  0.43092584  0.44528579     0.76900
Cd32       Cd  0.38015436  0.37730232  0.46495152     1.37500
O33         O  0.42929991  0.37029822  0.47558378    -0.58100
O34         O  0.35289078  0.42059707  0.45239802    -0.56900
C35         C  0.34969496  0.32187959  0.45954054     0.76900
O36         O  0.39923292  0.41570998  0.44666937    -0.59300
O37         O  0.42533161  0.36197080  0.45037403    -0.57700
O38         O  0.36434972  0.40804278  0.48791565    -0.57700
O39         O  0.33948217  0.34006025  0.46964991    -0.56900
O40         O  0.60815173  0.37090693  0.49273521    -0.58100
C41         C  0.56847021  0.36047756  0.46161798     0.74500
O42         O  0.62906113  0.40280377  0.44049304    -0.59200
C43         C  0.62662868  0.38802085  0.49911027     0.74500
C44         C  0.66463826  0.31984356  0.45924741     0.76900
Cd45       Cd  0.63017037  0.37257683  0.46563827     1.37500
O46         O  0.58170295  0.38086705  0.45394935    -0.58100
O47         O  0.67189133  0.33720687  0.47026777    -0.56900
C48         C  0.63616894  0.42663468  0.44718924     0.76900
O49         O  0.64483091  0.32914956  0.44998091    -0.59300
O50         O  0.58404510  0.34520695  0.47103089    -0.57700
O51         O  0.64776051  0.39732108  0.49012956    -0.57700
O52         O  0.64501063  0.42425398  0.46143836    -0.56900
O53         O  0.15297646  0.90200623  0.25741686    -0.58100
C54         C  0.11606816  0.82288681  0.28683889     0.74500
O55         O  0.15573180  0.87532645  0.30605334    -0.59200
C56         C  0.14157559  0.88308331  0.24826725     0.74500
C57         C  0.07086634  0.91612484  0.28846559     0.76900
Cd58       Cd  0.12601368  0.88429981  0.28209193     1.37500
O59         O  0.09442444  0.84073782  0.28683187    -0.58100
O60         O  0.08552394  0.90429291  0.29958799    -0.56900
C61         C  0.17634909  0.89345957  0.30275170     0.76900
O62         O  0.08377522  0.91677363  0.27491486    -0.59300
O63         O  0.14177520  0.83352949  0.28452590    -0.57700
O64         O  0.12267522  0.86577445  0.25465914    -0.57700
O65         O  0.17206692  0.91023737  0.29077430    -0.56900
O66         O  0.90685210  0.83699906  0.26992166    -0.58100
C67         C  0.87925291  0.89357516  0.24577698     0.74500
O68         O  0.85721047  0.89602328  0.30409501    -0.59200
C69         C  0.89944021  0.82245159  0.28230784     0.74500
C70         C  0.94496284  0.91286220  0.28892394     0.76900
Cd71       Cd  0.88943687  0.88475159  0.27971624     1.37500
O72         O  0.89450285  0.87251890  0.25134726    -0.58100
O73         O  0.93611469  0.88822034  0.29429099    -0.56900
C74         C  0.83302744  0.88826634  0.29779938     0.76900
O75         O  0.92679895  0.92663647  0.28015395    -0.59300
O76         O  0.86953255  0.91202612  0.25596992    -0.57700
O77         O  0.88790523  0.83706887  0.29363904    -0.57700
O78         O  0.83484907  0.88184358  0.28315298    -0.56900
O79         O  0.88034552  0.66367706  0.25259399    -0.58100
C80         C  0.89812491  0.69582585  0.28319149     0.74500
O81         O  0.85639108  0.63463839  0.30204972    -0.59200
C82         C  0.87082421  0.64357569  0.24371189     0.74500
C83         C  0.94177590  0.60289643  0.28232676     0.76900
Cd84       Cd  0.88634292  0.63503389  0.27699162     1.37500
O85         O  0.91732973  0.67982047  0.27618178    -0.58100
O86         O  0.92726883  0.61504199  0.29358624    -0.56900
C87         C  0.83279396  0.62444883  0.29623400     0.76900
O88         O  0.92851725  0.60184119  0.26916411    -0.59300
O89         O  0.87436433  0.68325212  0.28775927    -0.57700
O90         O  0.86836203  0.61819082  0.25021509    -0.57700
O91         O  0.83534741  0.61467498  0.28211878    -0.56900
O92         O  0.13234982  0.66581890  0.25287322    -0.58100
C93         C  0.11337525  0.69731785  0.28420368     0.74500
O94         O  0.08696823  0.59576507  0.27433722    -0.59200
C95         C  0.13931326  0.64500639  0.24360329     0.74500
C96         C  0.17910467  0.62739703  0.29547110     0.76900
Cd97       Cd  0.12467743  0.63682825  0.27760918     1.37500
O98         O  0.10041846  0.68392438  0.27312908    -0.58100
O99         O  0.17720858  0.62119889  0.28080748    -0.56900
C100        C  0.06820755  0.60648717  0.28419658     0.76900
O101        O  0.15464272  0.63288835  0.30255660    -0.59300
O102        O  0.13100979  0.68212292  0.29253906    -0.57700
O103        O  0.13972441  0.61948949  0.25004869    -0.57700
O104        O  0.07697268  0.62860870  0.29181366    -0.56900
C105        C  0.33288669  0.87434450  0.34994390     0.86200
C106        C  0.34801021  0.88305920  0.33387536    -0.54000
C107        C  0.33509923  0.87121546  0.32075545     0.09100
C108        C  0.30833813  0.85110067  0.32479851     0.20100
C109        C  0.29961609  0.88244174  0.34791240    -0.54700
C110        C  0.28718705  0.87100403  0.33448111     0.09200
C111        C  0.33261370  0.84008596  0.34980739    -0.54300
C112        C  0.31928656  0.82779300  0.33688239     0.09800
H113        H  0.36716654  0.89764421  0.33298664     0.14300
H114        H  0.29779563  0.84154416  0.31410770     0.00100
H115        H  0.28746860  0.89718577  0.35583957     0.14600
H116        H  0.34144503  0.82611923  0.35910459     0.14400
C117        C  0.33513982  0.65085767  0.34333133     0.86200
C118        C  0.33499893  0.68478889  0.34439044    -0.54000
C119        C  0.32237060  0.69923490  0.33178082     0.09100
C120        C  0.31225147  0.67787277  0.31863131     0.20100
C121        C  0.30274198  0.64196069  0.33989769    -0.54700
C122        C  0.29053297  0.65585467  0.32693403     0.09200
C123        C  0.35207309  0.64529419  0.32734212    -0.54300
C124        C  0.33994078  0.65906856  0.31445953     0.09800
H125        H  0.34452728  0.69660012  0.35429521     0.14300
H126        H  0.30241271  0.68924496  0.30822875     0.00100
H127        H  0.29166951  0.62418429  0.34642428     0.14600
H128        H  0.37172770  0.63161529  0.32597804     0.14400
C129        C  0.62462869  0.92940448  0.40508228     0.86200
C130        C  0.59068079  0.93147550  0.40328642    -0.54000
C131        C  0.57543302  0.94463172  0.41565507     0.09100
C132        C  0.59642771  0.95498109  0.42898583     0.20100
C133        C  0.63444232  0.96161779  0.40795609    -0.54700
C134        C  0.61985605  0.97484735  0.42044747     0.09200
C135        C  0.62929491  0.91443730  0.42157383    -0.54300
C136        C  0.61402879  0.92724915  0.43404746     0.09800
H137        H  0.57958835  0.92272826  0.39292256     0.14300
H138        H  0.58514775  0.96574416  0.43928171     0.00100
H139        H  0.65207724  0.97301346  0.40140348     0.14600
H140        H  0.64347413  0.89528535  0.42322475     0.14400
C141        C  0.39461785  0.93270864  0.40430894     0.86200
C142        C  0.38684298  0.91838303  0.42068939    -0.54000
C143        C  0.40130652  0.93025513  0.43336770     0.09100
C144        C  0.42296146  0.95526160  0.42844771     0.20100
C145        C  0.38835372  0.96596552  0.40711808    -0.54700
C146        C  0.40270517  0.97759265  0.41985683     0.09200
C147        C  0.42881441  0.93108416  0.40275128    -0.54300
C148        C  0.44408014  0.94216249  0.41541813     0.09800
H149        H  0.37096472  0.90045783  0.42208510     0.14300
H150        H  0.43467114  0.96488473  0.43874056     0.00100
H151        H  0.37335010  0.97950818  0.40029141     0.14600
H152        H  0.43985542  0.92248176  0.39212967     0.14400
C153        C  0.38853744  0.59160418  0.40011422     0.86200
C154        C  0.42268559  0.59018641  0.39770452    -0.54000
C155        C  0.43750418  0.57612835  0.40973440     0.09100
C156        C  0.41660329  0.56507190  0.42337242     0.20100
C157        C  0.37850651  0.55946382  0.40336149    -0.54700
C158        C  0.39325785  0.54563340  0.41541482     0.09200
C159        C  0.38477189  0.60664962  0.41667488    -0.54300
C160        C  0.39935909  0.59257501  0.42876735     0.09800
H161        H  0.43414005  0.60090571  0.38768713     0.14300
H162        H  0.42820323  0.55363149  0.43327466     0.00100
H163        H  0.36091781  0.54875103  0.39683801     0.14600
H164        H  0.37174637  0.62623242  0.41910000     0.14400
C165        C  0.61780994  0.58671171  0.40356048     0.86200
C166        C  0.62393144  0.60305428  0.41927390    -0.54000
C167        C  0.60818237  0.59254040  0.43214966     0.09100
C168        C  0.58701316  0.56680830  0.42826631     0.20100
C169        C  0.62349704  0.55396331  0.40769333    -0.54700
C170        C  0.60792064  0.54327646  0.42085262     0.09200
C171        C  0.58386683  0.58948368  0.40197683    -0.54300
C172        C  0.56739502  0.57849844  0.41459694     0.09800
H173        H  0.63897186  0.62149518  0.42055528     0.14300
H174        H  0.57336344  0.55843677  0.43833495     0.00100
H175        H  0.64000543  0.54102843  0.40120150     0.14600
H176        H  0.57363751  0.59943169  0.39157672     0.14400
C177        C  0.67789832  0.86554946  0.34883961     0.86200
C178        C  0.67736209  0.83135856  0.34977953    -0.54000
C179        C  0.68903301  0.81754606  0.33664596     0.09100
C180        C  0.70036395  0.83911360  0.32354032     0.20100
C181        C  0.71109828  0.87262182  0.34529610    -0.54700
C182        C  0.72260134  0.85953020  0.33182881     0.09200
C183        C  0.66207905  0.87299471  0.33305971    -0.54300
C184        C  0.67369147  0.85913783  0.31985077     0.09800
H185        H  0.66939437  0.81842231  0.35991696     0.14300
H186        H  0.70994137  0.82812251  0.31279437     0.00100
H187        H  0.72380848  0.88816939  0.35221493     0.14600
H188        H  0.64355631  0.88833718  0.33238142     0.14400
C189        C  0.67570976  0.63989537  0.34564530     0.86200
C190        C  0.66055704  0.63421843  0.32943167    -0.54000
C191        C  0.67302345  0.64938619  0.31680101     0.09100
C192        C  0.69883205  0.66956167  0.32139966     0.20100
C193        C  0.70886608  0.63315642  0.34218935    -0.54700
C194        C  0.72091464  0.64852195  0.32948687     0.09200
C195        C  0.67388007  0.67368225  0.34733307    -0.54300
C196        C  0.68592372  0.68927343  0.33473618     0.09800
H197        H  0.64139957  0.62028281  0.32767358     0.14300
H198        H  0.70871598  0.68210089  0.31111880     0.00100
H199        H  0.72104918  0.61609555  0.34850654     0.14600
H200        H  0.66386089  0.68439515  0.35768450     0.14400
O201        O  0.89117859  0.36228287  0.74304136    -0.58100
C202        C  0.89650852  0.32213466  0.70895978     0.74500
O203        O  0.86090226  0.39233589  0.69027122    -0.59200
C204        C  0.87731337  0.38239085  0.75043801     0.74500
C205        C  0.94066177  0.41628570  0.70818716     0.76900
Cd206      Cd  0.88707415  0.38324579  0.71593139     1.37500
O207        O  0.87117938  0.33409655  0.70835323    -0.58100
O208        O  0.92221478  0.42600886  0.71852208    -0.56900
C209        C  0.83498273  0.39314008  0.69646960     0.76900
O210        O  0.93244314  0.39393252  0.70055520    -0.59300
O211        O  0.91764707  0.33834092  0.71342984    -0.57700
O212        O  0.86837829  0.40373678  0.74184974    -0.57700
O213        O  0.83378331  0.39326853  0.71158672    -0.56900
O214        O  0.09496118  0.33436750  0.72525952    -0.58100
C215        C  0.13918217  0.38092634  0.74836724     0.74500
O216        O  0.15609689  0.35730155  0.69954223    -0.59200
C217        C  0.09387033  0.32283924  0.71155976     0.74500
C218        C  0.06510151  0.41676271  0.71065000     0.76900
Cd219      Cd  0.11760531  0.38069020  0.71596755     1.37500
O220        O  0.12687942  0.35890741  0.74209079    -0.58100
O221        O  0.07594145  0.41325162  0.72433364    -0.56900
C222        C  0.17151359  0.37980593  0.69612531     0.76900
O223        O  0.08064401  0.40674447  0.69915454    -0.59300
O224        O  0.14221742  0.40358995  0.73944874    -0.57700
O225        O  0.10098741  0.33927365  0.69980148    -0.57700
O226        O  0.16188493  0.40406268  0.70168553    -0.56900
O227        O  0.12739844  0.16644986  0.74360395    -0.58100
C228        C  0.09168858  0.19726335  0.71404573     0.74500
O229        O  0.14710353  0.14581615  0.69713086    -0.59200
C230        C  0.13252209  0.14460546  0.75267252     0.74500
C231        C  0.06097114  0.10151495  0.71341059     0.76900
Cd232      Cd  0.11248964  0.13831208  0.72007311     1.37500
O233        O  0.08304164  0.18289960  0.72629832    -0.58100
O234        O  0.06866868  0.10722755  0.72748282    -0.56900
C235        C  0.16781088  0.12962326  0.70218839     0.76900
O236        O  0.07880965  0.11003876  0.70245726    -0.59300
O237        O  0.10837654  0.18348362  0.70432507    -0.57700
O238        O  0.12903443  0.11939747  0.74649481    -0.57700
O239        O  0.16226898  0.11540214  0.71503573    -0.56900
O240        O  0.88276696  0.16439052  0.73950532    -0.58100
C241        C  0.90044435  0.19676686  0.70630605     0.74500
O242        O  0.91900250  0.09287490  0.71802320    -0.59200
C243        C  0.87495065  0.14314764  0.74853185     0.74500
C244        C  0.82936528  0.12874643  0.69816185     0.76900
Cd245      Cd  0.88552868  0.13703516  0.71440193     1.37500
O246        O  0.88321475  0.18180312  0.69775662    -0.58100
O247        O  0.83102082  0.13316936  0.71299491    -0.56900
C248        C  0.93832076  0.10189727  0.70787711     0.76900
O249        O  0.85402773  0.12467650  0.69093785    -0.59300
O250        O  0.91186321  0.18338907  0.71800178    -0.57700
O251        O  0.87168860  0.11837829  0.74177331    -0.57700
O252        O  0.93147252  0.12472171  0.70003203    -0.56900
O253        O  0.59532894  0.88162636  0.50817837    -0.58100
C254        C  0.55861202  0.84250562  0.53850599     0.74500
O255        O  0.63726020  0.82920392  0.55174424    -0.59200
C256        C  0.61925912  0.88906808  0.50099031     0.74500
C257        C  0.61541636  0.92379619  0.55300605     0.76900
Cd258      Cd  0.61627663  0.86935810  0.53439493     1.37500
O259        O  0.57235299  0.84258629  0.52513399    -0.58100
O260        O  0.59243170  0.90938445  0.54966330    -0.56900
C261        C  0.65305719  0.81776629  0.54077075     0.76900
O262        O  0.63985828  0.91295432  0.54795221    -0.59300
O263        O  0.57266214  0.85294432  0.55011206    -0.57700
O264        O  0.64238523  0.88824001  0.50942146    -0.57700
O265        O  0.65477718  0.83241605  0.52786605    -0.56900
O266        O  0.40410488  0.88838837  0.50923017    -0.58100
C267        C  0.43316550  0.84357364  0.53619865     0.74500
O268        O  0.38785964  0.90207547  0.55431928    -0.59200
C269        C  0.38278615  0.89383871  0.50003072     0.74500
C270        C  0.33988673  0.81569544  0.53663903     0.76900
Cd271      Cd  0.37525816  0.86910490  0.53214978     1.37500
O272        O  0.42104227  0.84500848  0.52271289    -0.58100
O273        O  0.34277207  0.82850012  0.52323272    -0.56900
C274        C  0.36835329  0.92149629  0.55176998     0.76900
O275        O  0.34972394  0.82980252  0.54837907    -0.59300
O276        O  0.41785358  0.85309611  0.54791608    -0.57700
O277        O  0.35694668  0.88880861  0.50590345    -0.57700
O278        O  0.34986244  0.91561519  0.54099734    -0.56900
O279        O  0.59858935  0.64025175  0.50534642    -0.58100
C280        C  0.56305098  0.66267419  0.54026836     0.74500
O281        O  0.64720772  0.60037607  0.54675285    -0.59200
C282        C  0.62019514  0.62886162  0.49775124     0.74500
C283        C  0.65562323  0.69406014  0.53803470     0.76900
Cd284      Cd  0.62122411  0.64163557  0.53159517     1.37500
O285        O  0.57443798  0.66692055  0.52646882    -0.58100
O286        O  0.65930598  0.67950218  0.52534304    -0.56900
C287        C  0.62376615  0.58474082  0.54759528     0.76900
O288        O  0.63941726  0.68190744  0.54872719    -0.59300
O289        O  0.57948927  0.65020858  0.55040356    -0.57700
O290        O  0.64297327  0.62285361  0.50592144    -0.57700
O291        O  0.60139544  0.59524299  0.54067892    -0.56900
O292        O  0.42783505  0.66910262  0.52472292    -0.58100
C293        C  0.38551069  0.62564661  0.49556194     0.74500
O294        O  0.35598665  0.60176892  0.54552258    -0.59200
C295        C  0.43818152  0.66426253  0.53846562     0.74500
C296        C  0.34360989  0.69191971  0.53676218     0.76900
Cd297      Cd  0.38150388  0.64180514  0.52924765     1.37500
O298        O  0.40259649  0.64453937  0.50161741    -0.58100
O299        O  0.34102846  0.67806084  0.52378521    -0.56900
C300        C  0.37962538  0.58665273  0.54688683     0.76900
O301        O  0.36048462  0.68013417  0.54685387    -0.59300
O302        O  0.36564972  0.61500890  0.50493521    -0.57700
O303        O  0.42154950  0.65010178  0.54818492    -0.57700
O304        O  0.40230733  0.59641224  0.53942179    -0.56900
C305        C  0.67403144  0.14359012  0.64899733     0.86200
C306        C  0.67440503  0.17731951  0.64632883    -0.54000
C307        C  0.68699266  0.19302753  0.65831066     0.09100
C308        C  0.69836191  0.17348525  0.67197822     0.20100
C309        C  0.70708050  0.13541027  0.65206258    -0.54700
C310        C  0.71968306  0.15094705  0.66423965     0.09200
C311        C  0.65929756  0.13868688  0.66566741    -0.54300
C312        C  0.67161421  0.15471582  0.67762306     0.09800
H313        H  0.66557610  0.18782701  0.63570207     0.14300
H314        H  0.70868796  0.18623847  0.68170016     0.00100
H315        H  0.71843095  0.11679890  0.64667698     0.14600
H316        H  0.64126402  0.12314157  0.66790537     0.14400
C317        C  0.68349364  0.36962950  0.64588351     0.86200
C318        C  0.66768768  0.37468168  0.66213969    -0.54000
C319        C  0.67996873  0.36005457  0.67470903     0.09100
C320        C  0.70775215  0.34198867  0.67001206     0.20100
C321        C  0.71600156  0.37925505  0.64905789    -0.54700
C322        C  0.72852093  0.36492687  0.66181736     0.09200
C323        C  0.68545930  0.33604776  0.64400492    -0.54300
C324        C  0.69766584  0.32129867  0.65656001     0.09800
H325        H  0.64865942  0.38927881  0.66362397     0.14300
H326        H  0.71793281  0.33047136  0.68033110     0.00100
H327        H  0.72736449  0.39737074  0.64300201     0.14600
H328        H  0.67658465  0.32464901  0.63376072     0.14400
C329        C  0.60987143  0.08529081  0.59552661     0.86200
C330        C  0.57541367  0.08551487  0.59721910    -0.54000
C331        C  0.56068072  0.07409098  0.58457608     0.09100
C332        C  0.58172709  0.06210721  0.57143788     0.20100
C333        C  0.61679890  0.05232058  0.59275799    -0.54700
C334        C  0.60255174  0.04046022  0.58001570     0.09200
C335        C  0.61653669  0.10035466  0.57918309    -0.54300
C336        C  0.60179701  0.08835344  0.56658986     0.09800
H337        H  0.56302388  0.09221821  0.60778874     0.14300
H338        H  0.57015091  0.05196375  0.56123962     0.00100
H339        H  0.63177442  0.03947691  0.60010280     0.14600
H340        H  0.63190198  0.11872706  0.57770954     0.14400
C341        C  0.38118532  0.07828827  0.59760660     0.86200
C342        C  0.37521136  0.09353297  0.58131405    -0.54000
C343        C  0.39042223  0.08141996  0.56873010     0.09100
C344        C  0.41037174  0.05529925  0.57331235     0.20100
C345        C  0.37400574  0.04556048  0.59472089    -0.54700
C346        C  0.38899513  0.03358744  0.58197751     0.09200
C347        C  0.41536346  0.07978309  0.59883303    -0.54300
C348        C  0.43086422  0.06732509  0.58636468     0.09800
H349        H  0.36100209  0.11249737  0.57948877     0.14300
H350        H  0.42237970  0.04577757  0.56283613     0.00100
H351        H  0.35712004  0.03348742  0.60156795     0.14600
H352        H  0.42640051  0.09017183  0.60875838     0.14400
C353        C  0.32839634  0.13551961  0.65508781     0.86200
C354        C  0.34709607  0.13120704  0.67026114    -0.54000
C355        C  0.33670222  0.14604749  0.68331045     0.09100
C356        C  0.30899300  0.16511039  0.67997226     0.20100
C357        C  0.29626681  0.12786022  0.66046213    -0.54700
C358        C  0.28609188  0.14290337  0.67362575     0.09200
C359        C  0.32868964  0.16924751  0.65272858    -0.54300
C360        C  0.31806437  0.18491058  0.66551096     0.09800
H361        H  0.36754042  0.11864740  0.67084170     0.14300
H362        H  0.30089701  0.17783886  0.69046447     0.00100
H363        H  0.28300705  0.11131426  0.65455178     0.14600
H364        H  0.33700122  0.17995837  0.64186059     0.14400
C365        C  0.32819977  0.36147431  0.64716905     0.86200
C366        C  0.32863693  0.32723416  0.64653375    -0.54000
C367        C  0.31741334  0.31340940  0.65996335     0.09100
C368        C  0.30525066  0.33507881  0.67258671     0.20100
C369        C  0.29517311  0.36872659  0.65040468    -0.54700
C370        C  0.28332765  0.35534024  0.66374256     0.09200
C371        C  0.34387738  0.36865556  0.66290680    -0.54300
C372        C  0.33193371  0.35499300  0.67618841     0.09800
H373        H  0.33655152  0.31430034  0.63653820     0.14300
H374        H  0.29544727  0.32411400  0.68339727     0.00100
H375        H  0.28258163  0.38417991  0.64318909     0.14600
H376        H  0.36243036  0.38394026  0.66349418     0.14400
C377        C  0.61429996  0.42538155  0.59352102     0.86200
C378        C  0.62118735  0.41037822  0.57747757    -0.54000
C379        C  0.60619086  0.42197496  0.56489144     0.09100
C380        C  0.58539595  0.44760687  0.56930493     0.20100
C381        C  0.62012411  0.45858157  0.59042246    -0.54700
C382        C  0.60550839  0.47005647  0.57758156     0.09200
C383        C  0.57985093  0.42382592  0.59534440    -0.54300
C384        C  0.56472444  0.43553026  0.58272691     0.09800
H385        H  0.63725237  0.39260546  0.57611134     0.14300
H386        H  0.57354593  0.45680095  0.55884410     0.00100
H387        H  0.63475474  0.47184982  0.59762098     0.14600
H388        H  0.56793633  0.41517356  0.60573258     0.14400
C389        C  0.38533214  0.42828804  0.59293946     0.86200
C390        C  0.41927181  0.42453010  0.59376711    -0.54000
C391        C  0.43504791  0.43730772  0.58145947     0.09100
C392        C  0.41526678  0.45334678  0.56929167     0.20100
C393        C  0.38063064  0.46210655  0.59161999    -0.54700
C394        C  0.39633506  0.47516141  0.57926959     0.09200
C395        C  0.37681822  0.41751885  0.57622930    -0.54300
C396        C  0.39252399  0.43024074  0.56378921     0.09800
H397        H  0.43000860  0.41287421  0.60349635     0.14300
H398        H  0.42830870  0.46382049  0.55938345     0.00100
H399        H  0.36502870  0.47473392  0.59882763     0.14600
H400        H  0.35946232  0.40127209  0.57441333     0.14400
O401        O  0.37930009  0.87306627  0.24577493    -0.58100
C402        C  0.38157062  0.83548411  0.21426413     0.74500
O403        O  0.35474953  0.89994233  0.19367949    -0.59200
C404        C  0.36477001  0.89193237  0.25375130     0.74500
C405        C  0.43547930  0.92671380  0.21622468     0.76900
Cd406      Cd  0.37785824  0.89747034  0.22000196     1.37500
O407        O  0.35770855  0.84816650  0.21843985    -0.58100
O408        O  0.42521229  0.90956529  0.20584549    -0.56900
C409        C  0.32912401  0.90774901  0.19841008     0.76900
O410        O  0.41744980  0.93370711  0.22737671    -0.59300
O411        O  0.40456948  0.85158903  0.21320821    -0.57700
O412        O  0.35697783  0.91509318  0.24621905    -0.57700
O413        O  0.32730397  0.91681395  0.21269697    -0.56900
O414        O  0.58461163  0.84573188  0.22777659    -0.58100
C415        C  0.63681549  0.88281360  0.25449521     0.74500
O416        O  0.64770061  0.88549875  0.19689788    -0.59200
C417        C  0.59676599  0.82928078  0.21743489     0.74500
C418        C  0.56237310  0.92391551  0.21693100     0.76900
Cd419      Cd  0.61619212  0.88893461  0.22187349     1.37500
O420        O  0.62684823  0.86158779  0.24645231    -0.58100
O421        O  0.57519888  0.92320370  0.23024478    -0.56900
C422        C  0.67067208  0.89695256  0.20273525     0.76900
O423        O  0.57681014  0.91233857  0.20550556    -0.59300
O424        O  0.63758676  0.90764956  0.24735211    -0.57700
O425        O  0.61690686  0.84097397  0.20872031    -0.57700
O426        O  0.66740600  0.90773186  0.21658850    -0.56900
O427        O  0.61659162  0.66204835  0.24563109    -0.58100
C428        C  0.59375177  0.70364217  0.21458535     0.74500
O429        O  0.66031988  0.66816209  0.20898039    -0.59200
C430        C  0.63313814  0.64230633  0.25139613     0.74500
C431        C  0.56164316  0.61187764  0.21083267     0.76900
Cd432      Cd  0.61511458  0.64461860  0.21844326     1.37500
O433        O  0.59153520  0.68975635  0.22774562    -0.58100
O434        O  0.57522504  0.60727801  0.22374426    -0.56900
C435        C  0.67096261  0.64803938  0.20032748     0.76900
O436        O  0.57513283  0.62804899  0.20067198    -0.59300
O437        O  0.60365061  0.68908695  0.20280871    -0.57700
O438        O  0.64030107  0.62136593  0.24205253    -0.57700
O439        O  0.65627846  0.62403630  0.20037688    -0.56900
O440        O  0.36202291  0.69638188  0.21602597    -0.58100
C441        C  0.36948183  0.64478554  0.24732128     0.74500
O442        O  0.35167471  0.65213965  0.18800919    -0.59200
C443        C  0.38481655  0.70923628  0.21024684     0.74500
C444        C  0.43571022  0.61530896  0.20819135     0.76900
Cd445      Cd  0.38001127  0.64672437  0.21302509     1.37500
O446        O  0.38643647  0.66367667  0.24060600    -0.58100
O447        O  0.41669940  0.60720788  0.21866049    -0.56900
C448        C  0.32874823  0.63831584  0.19283910     0.76900
O449        O  0.42714270  0.63497337  0.19848525    -0.59300
O450        O  0.35773194  0.62622785  0.23810821    -0.57700
O451        O  0.40619698  0.69293666  0.20572166    -0.57700
O452        O  0.33141232  0.62438845  0.20591744    -0.56900
O453        O  0.10501626  0.15063265  0.00473013    -0.58100
C454        C  0.07047388  0.18169502  0.03545164     0.74500
O455        O  0.14987431  0.11833309  0.04903486    -0.59200
C456        C  0.12501744  0.13515460  0.99815125     0.74500
C457        C  0.16271067  0.21111296  0.03416005     0.76900
Cd458      Cd  0.12804537  0.15731863  0.03036253     1.37500
O459        O  0.08520586  0.17141507  0.04699713    -0.58100
O460        O  0.14637088  0.20039378  0.04524700    -0.56900
C461        C  0.12537194  0.10439865  0.05050476     0.76900
O462        O  0.16677997  0.19459908  0.02219576    -0.59300
O463        O  0.08357889  0.18255978  0.02195197    -0.57700
O464        O  0.14810663  0.13039433  0.00635189    -0.57700
O465        O  0.10425867  0.11454171  0.04246193    -0.56900
O466        O  0.92888408  0.16447435  0.04392673    -0.58100
C467        C  0.88999216  0.14523945  0.99438900     0.74500
O468        O  0.87011562  0.13120733  0.05183871    -0.59200
C469        C  0.94454642  0.17940394  0.03412214     0.74500
C470        C  0.85172204  0.21608553  0.03241117     0.76900
Cd471      Cd  0.88499725  0.16180999  0.02749284     1.37500
O472        O  0.91216620  0.15227671  0.00262088    -0.58100
O473        O  0.87096721  0.20650698  0.04191724    -0.56900
C474        C  0.87508102  0.10654222  0.04530948     0.76900
O475        O  0.84494667  0.19886974  0.02119298    -0.59300
O476        O  0.86468223  0.14662850  0.00143346    -0.57700
O477        O  0.93210237  0.18688725  0.02127296    -0.57700
O478        O  0.88176784  0.10782377  0.03061578    -0.56900
O479        O  0.07795593  0.37558515  0.01449108    -0.58100
C480        C  0.12748788  0.40639495  0.99087716     0.74500
O481        O  0.15009697  0.43295504  0.03804911    -0.59200
C482        C  0.06684089  0.36725936  0.02776458     0.74500
C483        C  0.16148148  0.33604141  0.03164322     0.76900
Cd484      Cd  0.12661486  0.38881189  0.02442583     1.37500
O485        O  0.11244329  0.38502387  0.99647311    -0.58100
O486        O  0.16580865  0.35028295  0.01871703    -0.56900
C487        C  0.12561983  0.44217881  0.04398053     0.76900
O488        O  0.14450739  0.34841506  0.04171457    -0.59300
O489        O  0.14358565  0.41975335  0.00083950    -0.57700
O490        O  0.08382147  0.36810806  0.03964811    -0.57700
O491        O  0.10315387  0.42664520  0.04094518    -0.56900
O492        O  0.89945973  0.39532712  0.99957677    -0.58100
C493        C  0.94094807  0.37122737  0.03040536     0.74500
O494        O  0.85770267  0.43167058  0.04534776    -0.59200
C495        C  0.88137038  0.41407661  0.99418928     0.74500
C496        C  0.84843122  0.34093540  0.03215992     0.76900
Cd497      Cd  0.88209867  0.39445608  0.02703765     1.37500
O498        O  0.92824337  0.37273012  0.01706704    -0.58100
O499        O  0.84260758  0.35827608  0.02071536    -0.56900
C500        C  0.88137116  0.44657666  0.04701718     0.76900
O501        O  0.86563966  0.35097423  0.04257397    -0.59300
O502        O  0.92570942  0.37955592  0.04240961    -0.57700
O503        O  0.86227755  0.42421885  0.00409694    -0.57700
O504        O  0.90382303  0.43784385  0.03910544    -0.56900
C505        C  0.82981220  0.88762117  0.15274089     0.86200
C506        C  0.82911484  0.85346269  0.15166459    -0.54000
C507        C  0.82079297  0.83891365  0.16545801     0.09100
C508        C  0.81345212  0.86026497  0.17923424     0.20100
C509        C  0.79772535  0.89495069  0.15876553    -0.54700
C510        C  0.78899612  0.88107020  0.17291184     0.09200
C511        C  0.84957563  0.89415609  0.16703778    -0.54300
C512        C  0.84113431  0.88021489  0.18085935     0.09800
H513        H  0.83332979  0.84135735  0.14076056     0.14300
H514        H  0.80682471  0.84808506  0.19007384     0.00100
H515        H  0.78340986  0.91006341  0.15237299     0.14600
H516        H  0.86806515  0.90961080  0.16642859     0.14400
C517        C  0.82813111  0.66283478  0.14949271     0.86200
C518        C  0.84510279  0.65415475  0.16468537    -0.54000
C519        C  0.83440983  0.66681179  0.17838816     0.09100
C520        C  0.80746806  0.68722019  0.17571867     0.20100
C521        C  0.79541409  0.65455085  0.15381203    -0.54700
C522        C  0.78485230  0.66688610  0.16767158     0.09200
C523        C  0.82809487  0.69678421  0.14910896    -0.54300
C524        C  0.81695630  0.70983184  0.16262534     0.09800
H525        H  0.86374152  0.63888636  0.16461280     0.14300
H526        H  0.79879066  0.69744858  0.18689560     0.00100
H527        H  0.78151757  0.64007154  0.14699416     0.14600
H528        H  0.83634037  0.70945947  0.13886519     0.14400
C529        C  0.11231269  0.59854560  0.09222424     0.86200
C530        C  0.07804621  0.59921937  0.09354783    -0.54000
C531        C  0.06364505  0.58840848  0.08059045     0.09100
C532        C  0.08515760  0.57678560  0.06746554     0.20100
C533        C  0.11960783  0.56559180  0.08881706    -0.54700
C534        C  0.10524040  0.55425736  0.07592683     0.09200
C535        C  0.12016287  0.61401237  0.07616647    -0.54300
C536        C  0.10609841  0.60268405  0.06323386     0.09800
H537        H  0.06613395  0.60784866  0.10392311     0.14300
H538        H  0.07389250  0.56759021  0.05691470     0.00100
H539        H  0.13520025  0.55219000  0.09537825     0.14600
H540        H  0.13642271  0.63168939  0.07506994     0.14400
C541        C  0.88534319  0.60573618  0.09268542     0.86200
C542        C  0.87902551  0.61980616  0.07624038    -0.54000
C543        C  0.89250790  0.60581918  0.06357687     0.09100
C544        C  0.91210060  0.57951529  0.06859759     0.20100
C545        C  0.87687073  0.57272159  0.09085724    -0.54700
C546        C  0.89055203  0.55927006  0.07804165     0.09200
C547        C  0.91974426  0.60478727  0.09353328    -0.54300
C548        C  0.93377700  0.59110966  0.08110289     0.09800
H549        H  0.86502012  0.63913814  0.07482000     0.14300
H550        H  0.92341261  0.56826492  0.05841434     0.00100
H551        H  0.86172905  0.56105025  0.09896669     0.14600
H552        H  0.93262520  0.61282908  0.10336565     0.14400
C553        C  0.11275621  0.94516515  0.09762966     0.86200
C554        C  0.11902853  0.93089524  0.08113742    -0.54000
C555        C  0.10568934  0.94467525  0.06859778     0.09100
C556        C  0.08588821  0.97078575  0.07361945     0.20100
C557        C  0.12091366  0.97805899  0.09509068    -0.54700
C558        C  0.10717443  0.99135383  0.08242534     0.09200
C559        C  0.07837202  0.94448834  0.09889341    -0.54300
C560        C  0.06429817  0.95816845  0.08647987     0.09800
H561        H  0.13152820  0.91077177  0.07926190     0.14300
H562        H  0.07453244  0.98156861  0.06342736     0.00100
H563        H  0.13665291  0.98956102  0.10250043     0.14600
H564        H  0.06614703  0.93376452  0.10865031     0.14400
C565        C  0.88510311  0.95118490  0.09623414     0.86200
C566        C  0.91911864  0.95098141  0.09821999    -0.54000
C567        C  0.93492311  0.96335813  0.08581128     0.09100
C568        C  0.91529147  0.97534327  0.07238549     0.20100
C569        C  0.87721107  0.98415306  0.09292205    -0.54700
C570        C  0.89292489  0.99665073  0.08030478     0.09200
C571        C  0.88001790  0.93671708  0.07983504    -0.54300
C572        C  0.89572821  0.94936254  0.06735727     0.09800
H573        H  0.92988161  0.94113908  0.10849577     0.14300
H574        H  0.92833060  0.98556102  0.06235692     0.00100
H575        H  0.85877005  0.99566003  0.09859316     0.14600
H576        H  0.86511290  0.91816346  0.07827290     0.14400
C577        C  0.17269983  0.88452330  0.15227161     0.86200
C578        C  0.15776970  0.88672019  0.16912551    -0.54000
C579        C  0.17224473  0.87141726  0.18087145     0.09100
C580        C  0.20030589  0.85527942  0.17482016     0.20100
C581        C  0.20487112  0.89478555  0.15491149    -0.54700
C582        C  0.21917408  0.87998552  0.16678527     0.09200
C583        C  0.17466996  0.85093956  0.14964767    -0.54300
C584        C  0.18910754  0.83529964  0.16127509     0.09800
H585        H  0.13808226  0.89952737  0.17194082     0.14300
H586        H  0.21187946  0.84322004  0.18449192     0.00100
H587        H  0.21485042  0.91343769  0.14855744     0.14600
H588        H  0.16419051  0.84023684  0.13964312     0.14400
C589        C  0.17149983  0.65852030  0.14686345     0.86200
C590        C  0.17093124  0.69271851  0.14626443    -0.54000
C591        C  0.18253210  0.70624482  0.15928194     0.09100
C592        C  0.19506976  0.68424852  0.17158450     0.20100
C593        C  0.20495299  0.65170800  0.14903632    -0.54700
C594        C  0.21701739  0.66457720  0.16218838     0.09200
C595        C  0.15666643  0.65030154  0.16314157    -0.54300
C596        C  0.16918033  0.66348210  0.17605082     0.09800
H597        H  0.16377618  0.70570801  0.13612120     0.14300
H598        H  0.20514407  0.69494102  0.18209107     0.00100
H599        H  0.21755809  0.63674553  0.14144132     0.14600
H600        H  0.13803490  0.63511644  0.16431576     0.14400
O601        O  0.62288137  0.33751440  0.78806895    -0.58100
C602        C  0.64564450  0.38016311  0.74114440     0.74500
O603        O  0.58303242  0.40130092  0.79047562    -0.59200
C604        C  0.60545301  0.32606999  0.77819460     0.74500
C605        C  0.68112751  0.39483283  0.79289733     0.76900
Cd606      Cd  0.62697930  0.38532347  0.77436039     1.37500
O607        O  0.64471883  0.35838121  0.75074621    -0.58100
O608        O  0.67898097  0.40411341  0.77864963    -0.56900
C609        C  0.57177380  0.41780845  0.77996919     0.76900
O610        O  0.65743192  0.38437805  0.79903945    -0.59300
O611        O  0.63894293  0.40500539  0.74711448    -0.57700
O612        O  0.59780646  0.34222956  0.76658903    -0.57700
O613        O  0.58828971  0.42315308  0.76786037    -0.56900
O614        O  0.40871148  0.32622606  0.76546705    -0.58100
C615        C  0.37225531  0.37297266  0.74095192     0.74500
O616        O  0.35006965  0.35457171  0.78881387    -0.59200
C617        C  0.41617068  0.31730725  0.77918139     0.74500
C618        C  0.44597664  0.41081858  0.77774988     0.76900
Cd619      Cd  0.39264320  0.37515141  0.77365776     1.37500
O620        O  0.39372956  0.35763548  0.74593696    -0.58100
O621        O  0.43018007  0.41358151  0.76547293    -0.56900
C622        C  0.33944950  0.37823099  0.79436178     0.76900
O623        O  0.43494566  0.39479370  0.78878704    -0.59300
O624        O  0.36075077  0.39085501  0.75090027    -0.57700
O625        O  0.41349661  0.33565704  0.79041183    -0.57700
O626        O  0.35316519  0.40164367  0.79017831    -0.56900
O627        O  0.41215065  0.18183928  0.76994880    -0.58100
C628        C  0.37699230  0.13774823  0.74876757     0.74500
O629        O  0.43391797  0.09923131  0.77632409    -0.59200
C630        C  0.42058904  0.19359281  0.78271150     0.74500
C631        C  0.33912403  0.13606283  0.80170671     0.76900
Cd632      Cd  0.39416712  0.13640737  0.78211045     1.37500
O633        O  0.37704354  0.16004539  0.75770594    -0.58100
O634        O  0.34648025  0.11357401  0.79358565    -0.56900
C635        C  0.44855175  0.10381011  0.78884674     0.76900
O636        O  0.35760260  0.15694868  0.80128176    -0.59300
O637        O  0.38371495  0.11339443  0.75547494    -0.57700
O638        O  0.41807697  0.17813531  0.79534390    -0.57700
O639        O  0.43571600  0.11979606  0.79915816    -0.56900
O640        O  0.64567932  0.16481111  0.75399969    -0.58100
C641        C  0.60117179  0.20146003  0.77940488     0.74500
O642        O  0.58410565  0.11387303  0.77146068    -0.59200
C643        C  0.64631590  0.14157352  0.74574963     0.74500
C644        C  0.68068765  0.14569045  0.79803892     0.76900
Cd645      Cd  0.62704038  0.14372559  0.77888407     1.37500
O646        O  0.61117540  0.18952681  0.76685658    -0.58100
O647        O  0.66162472  0.16608125  0.79745402    -0.56900
C648        C  0.57397614  0.10829935  0.78532204     0.76900
O649        O  0.67446688  0.12260008  0.79028926    -0.59300
O650        O  0.60134319  0.18574378  0.79200616    -0.57700
O651        O  0.64020564  0.11778801  0.75327354    -0.57700
O652        O  0.59025341  0.11636859  0.79668221    -0.56900
O653        O  0.09785247  0.90127404  0.99366090    -0.58100
C654        C  0.06825783  0.85989530  0.96694696     0.74500
O655        O  0.14870771  0.93387673  0.96422824    -0.59200
C656        C  0.11950298  0.90566571  0.00274571     0.74500
C657        C  0.16323159  0.83290417  0.96304335     0.76900
Cd658      Cd  0.12659648  0.88423677  0.97030419     1.37500
O659        O  0.08516042  0.85090444  0.97785958    -0.58100
O660        O  0.15120612  0.84808894  0.95218836    -0.56900
C661        C  0.13441901  0.93817490  0.95150592     0.76900
O662        O  0.16171364  0.84378399  0.97688601    -0.59300
O663        O  0.07903680  0.87904994  0.95738125    -0.57700
O664        O  0.14513055  0.90057996  0.99668315    -0.57700
O665        O  0.11907954  0.91664219  0.94686244    -0.56900
O666        O  0.92543116  0.85403124  0.97628319    -0.58100
C667        C  0.88894000  0.91434978  0.00078162     0.74500
O668        O  0.86136573  0.93441839  0.95636765    -0.59200
C669        C  0.94387248  0.86333709  0.96575818     0.74500
C670        C  0.85247775  0.83780092  0.96108464     0.76900
Cd671      Cd  0.88657404  0.89007405  0.96879766     1.37500
O672        O  0.91171968  0.90733808  0.99263054    -0.58100
O673        O  0.85073458  0.84947964  0.97476261    -0.56900
C674        C  0.88399178  0.94139343  0.94778793     0.76900
O675        O  0.86649620  0.85263589  0.95054010    -0.59300
O676        O  0.86421358  0.91058985  0.99400070    -0.57700
O677        O  0.93533849  0.88432853  0.95692625    -0.57700
O678        O  0.90574574  0.92397181  0.94859393    -0.56900
O679        O  0.90408330  0.63971103  0.98699159    -0.58100
C680        C  0.93906735  0.67938044  0.95999815     0.74500
O681        O  0.85639657  0.60925595  0.95694261    -0.59200
C682        C  0.88155437  0.63672364  0.99613917     0.74500
C683        C  0.84615046  0.71296645  0.95877586     0.76900
Cd684      Cd  0.87879568  0.65849096  0.96362897     1.37500
O685        O  0.92213956  0.68830680  0.97120214    -0.58100
O686        O  0.84479614  0.69862285  0.97176108    -0.56900
C687        C  0.87100209  0.60656190  0.94392442     0.76900
O688        O  0.85864642  0.69974780  0.94721027    -0.59300
O689        O  0.92781484  0.66132304  0.95042494    -0.57700
O690        O  0.85663542  0.64253374  0.98993244    -0.57700
O691        O  0.88578366  0.62897871  0.93948934    -0.56900
O692        O  0.07604052  0.67336995  0.97452037    -0.58100
C693        C  0.12562397  0.63801251  0.99685425     0.74500
O694        O  0.14838670  0.61920184  0.94606273    -0.59200
C695        C  0.06506820  0.68125691  0.96136709     0.74500
C696        C  0.16102226  0.71007441  0.95770502     0.76900
Cd697      Cd  0.12434083  0.65807049  0.96372292     1.37500
O698        O  0.11161665  0.66058241  0.99216870    -0.58100
O699        O  0.14120663  0.70166251  0.94828864    -0.56900
C700        C  0.12404390  0.60663735  0.94280371     0.76900
O701        O  0.16673044  0.69241834  0.96905698    -0.59300
O702        O  0.14069971  0.62462927  0.98616841    -0.57700
O703        O  0.08205190  0.67940224  0.94915651    -0.57700
O704        O  0.10109944  0.61778287  0.94929155    -0.56900
C705        C  0.11719525  0.44831275  0.89621588     0.86200
C706        C  0.08270067  0.44651403  0.89640375    -0.54000
C707        C  0.06879457  0.45875923  0.90941484     0.09100
C708        C  0.09076250  0.47245523  0.92117389     0.20100
C709        C  0.12302433  0.48195458  0.89788570    -0.54700
C710        C  0.10912108  0.49461787  0.91093779     0.09200
C711        C  0.12603531  0.43486459  0.91240649    -0.54300
C712        C  0.11271078  0.44761485  0.92542323     0.09800
H713        H  0.06952626  0.43817018  0.88676583     0.14300
H714        H  0.07996475  0.48251077  0.93185222     0.00100
H715        H  0.13682525  0.49458434  0.88951279     0.14600
H716        H  0.14163673  0.41666126  0.91347718     0.14400
C717        C  0.89088959  0.44829474  0.89898685     0.86200
C718        C  0.88530715  0.43361581  0.91539421    -0.54000
C719        C  0.89901811  0.44724796  0.92776120     0.09100
C720        C  0.91727426  0.47458317  0.92266559     0.20100
C721        C  0.88158204  0.48088585  0.90130954    -0.54700
C722        C  0.89481314  0.49426345  0.91393461     0.09200
C723        C  0.92519835  0.45012369  0.89725359    -0.54300
C724        C  0.93912114  0.46385193  0.90948846     0.09800
H725        H  0.87077526  0.41464917  0.91713494     0.14300
H726        H  0.92823209  0.48574021  0.93276144     0.00100
H727        H  0.86554557  0.49225371  0.89392593     0.14600
H728        H  0.93793649  0.44156846  0.88722261     0.14400
C729        C  0.83907278  0.15722406  0.84389031     0.86200
C730        C  0.84175399  0.19101346  0.84498753    -0.54000
C731        C  0.83071445  0.20652241  0.83229963     0.09100
C732        C  0.81788953  0.18617416  0.81932062     0.20100
C733        C  0.80542087  0.15194338  0.84107664    -0.54700
C734        C  0.79432462  0.16708077  0.82821849     0.09200
C735        C  0.85358271  0.14892865  0.82773728    -0.54300
C736        C  0.84282422  0.16402369  0.81494689     0.09800
H737        H  0.85101023  0.20180697  0.85531898     0.14300
H738        H  0.80894948  0.19789513  0.80875695     0.00100
H739        H  0.79150758  0.13666098  0.84784596     0.14600
H740        H  0.87043741  0.13186946  0.82645742     0.14400
C741        C  0.83345124  0.38487532  0.84554610     0.86200
C742        C  0.85139174  0.38993836  0.82986585    -0.54000
C743        C  0.84127997  0.37442279  0.81720667     0.09100
C744        C  0.81369150  0.35549313  0.82115218     0.20100
C745        C  0.80120138  0.39313139  0.84077612    -0.54700
C746        C  0.79089113  0.37774869  0.82792143     0.09200
C747        C  0.83269121  0.35117021  0.84803329    -0.54300
C748        C  0.82232542  0.33553064  0.83540788     0.09800
H749        H  0.87008682  0.40507957  0.82877579     0.14300
H750        H  0.80543235  0.34319506  0.81070384     0.00100
H751        H  0.78850270  0.41110766  0.84592896     0.14600
H752        H  0.84132621  0.34064451  0.85868341     0.14400
C753        C  0.17690299  0.15363627  0.84631498     0.86200
C754        C  0.15987050  0.15002882  0.83055520    -0.54000
C755        C  0.17259637  0.16394906  0.81758023     0.09100
C756        C  0.20124059  0.18095472  0.82151946     0.20100
C757        C  0.20882282  0.14354910  0.84221488    -0.54700
C758        C  0.22150690  0.15749922  0.82925883     0.09200
C759        C  0.17884496  0.18742792  0.84798660    -0.54300
C760        C  0.19179767  0.20210456  0.83520821     0.09800
H761        H  0.13915020  0.13815367  0.82939933     0.14300
H762        H  0.21162851  0.19186641  0.81089172     0.00100
H763        H  0.22024547  0.12638554  0.84886057     0.14600
H764        H  0.16985023  0.19889765  0.85834961     0.14400
C765        C  0.17935002  0.38272298  0.84291713     0.86200
C766        C  0.17822299  0.34904281  0.84605219    -0.54000
C767        C  0.18983487  0.33196623  0.83398300     0.09100
C768        C  0.20259042  0.35060320  0.81988438     0.20100
C769        C  0.21276237  0.38903021  0.83927262    -0.54700
C770        C  0.22474048  0.37237375  0.82718506     0.09200
C771        C  0.16496203  0.38730114  0.82645488    -0.54300
C772        C  0.17666577  0.37026340  0.81444848     0.09800
H773        H  0.16924338  0.33970195  0.85712135     0.14300
H774        H  0.21271790  0.33748601  0.81004327     0.00100
H775        H  0.22596541  0.40567893  0.84502288     0.14600
H776        H  0.14718584  0.40306939  0.82443818     0.14400
C777        C  0.89663365  0.09915371  0.89983065     0.86200
C778        C  0.93113215  0.09791749  0.89951294    -0.54000
C779        C  0.94325337  0.08681659  0.91313893     0.09100
C780        C  0.92002886  0.07685518  0.92574432     0.20100
C781        C  0.88763472  0.06680279  0.90345726    -0.54700
C782        C  0.89939412  0.05550217  0.91715179     0.09200
C783        C  0.88896510  0.11621405  0.91525464    -0.54300
C784        C  0.90086837  0.10445367  0.92885726     0.09800
H785        H  0.94544968  0.10459527  0.88958206     0.14300
H786        H  0.92991144  0.06702909  0.93664169     0.00100
H787        H  0.87323379  0.05395380  0.89591382     0.14600
H788        H  0.87622011  0.13654778  0.91516004     0.14400
C789        C  0.12095433  0.09536268  0.90372343     0.86200
C790        C  0.12718959  0.10974187  0.92007561    -0.54000
C791        C  0.11272342  0.09653911  0.93275471     0.09100
C792        C  0.09265244  0.07077991  0.92809103     0.20100
C793        C  0.12847871  0.06241441  0.90638502    -0.54700
C794        C  0.11399210  0.04969277  0.91925872     0.09200
C795        C  0.08678425  0.09683054  0.90284233    -0.54300
C796        C  0.07190397  0.08352788  0.91533604     0.09800
H797        H  0.14094597  0.12898412  0.92184838     0.14300
H798        H  0.08067074  0.06042852  0.93845404     0.00100
H799        H  0.14556729  0.05098379  0.89947952     0.14600
H800        H  0.07523058  0.10785901  0.89318654     0.14400
C801        C  0.02395077  0.11101901  0.91555159    -0.09400
C802        C  0.03880725  0.08383423  0.91668472     0.06800
C803        C  0.02176580  0.05769919  0.91798466    -0.03200
C804        C  0.99054830  0.05909231  0.91754710    -0.07600
C805        C  0.97590833  0.08619521  0.91559160     0.05900
C806        C  0.99286729  0.11238278  0.91503204    -0.02700
Br807      Br  0.97461832  0.15063808  0.91374862    -0.02400
H808        H  0.03666900  0.13132613  0.91481541     0.09800
H809        H  0.97775113  0.03883802  0.91800933     0.07800
Br810      Br  0.03981923  0.01940790  0.91878091    -0.02800
C811        C  0.14204397  0.11504458  0.85977866    -0.09400
C812        C  0.16366336  0.13746540  0.86122369     0.06800
C813        C  0.17400609  0.14298860  0.87682729    -0.03200
C814        C  0.16048013  0.12931088  0.89024067    -0.07600
C815        C  0.13691347  0.10892974  0.88884346     0.05900
C816        C  0.12913346  0.10074629  0.87314870    -0.02700
Br817      Br  0.10162964  0.06938052  0.86876825    -0.02400
H818        H  0.13552511  0.10724925  0.84824001     0.09800
H819        H  0.16964710  0.13427382  0.90170904     0.07800
Br820      Br  0.20761271  0.16792199  0.88094022    -0.02800
C821        C  0.16670547  0.25069036  0.83970657    -0.09400
C822        C  0.19213393  0.23536486  0.83429925     0.06800
C823        C  0.21651664  0.25225645  0.82837933    -0.03200
C824        C  0.21519963  0.28334036  0.82839063    -0.07600
C825        C  0.19005117  0.29863644  0.83428752     0.05900
C826        C  0.16534944  0.28159612  0.83968617    -0.02700
Br827      Br  0.12770363  0.29823497  0.84581013    -0.02400
H828        H  0.14718378  0.23844882  0.84369898     0.09800
H829        H  0.23425458  0.29557688  0.82388369     0.07800
Br830      Br  0.25296221  0.23484604  0.82087878    -0.02800
C831        C  0.83698803  0.12548559  0.86978164    -0.09400
C832        C  0.85377869  0.14141793  0.85817876     0.06800
C833        C  0.88486490  0.14371120  0.86060099    -0.03200
C834        C  0.89814643  0.12965183  0.87363768    -0.07600
C835        C  0.88155259  0.11304018  0.88505133     0.05900
C836        C  0.85023914  0.11201042  0.88307605    -0.02700
Br837      Br  0.82331092  0.09408491  0.89845481    -0.02400
H838        H  0.81312172  0.12412031  0.86915243     0.09800
H839        H  0.92160636  0.13340551  0.87494591     0.07800
Br840      Br  0.91113289  0.16690989  0.84702222    -0.02800
C841        C  0.81766899  0.25320711  0.84682152    -0.09400
C842        C  0.82787730  0.23964119  0.83262963     0.06800
C843        C  0.83476796  0.25808082  0.81935174    -0.03200
C844        C  0.83204492  0.28881407  0.82054205    -0.07600
C845        C  0.82265945  0.30240375  0.83478335     0.05900
C846        C  0.81480398  0.28402113  0.84798775    -0.02700
Br847      Br  0.79774459  0.29900795  0.86753851    -0.02400
H848        H  0.81124284  0.23966358  0.85705971     0.09800
H849        H  0.83805841  0.30220127  0.81022867     0.07800
Br850      Br  0.84991652  0.24369131  0.79941910    -0.02800
C851        C  0.89088838  0.41117156  0.87606840    -0.09400
C852        C  0.87499469  0.43168862  0.88550943     0.06800
C853        C  0.84383884  0.43352639  0.88312177    -0.03200
C854        C  0.83074405  0.41902845  0.87019140    -0.07600
C855        C  0.84748167  0.40070413  0.85982818     0.05900
C856        C  0.87775207  0.39588535  0.86360246    -0.02700
Br857      Br  0.90295414  0.36766400  0.85279162    -0.02400
H858        H  0.91358828  0.40546240  0.87865420     0.09800
H859        H  0.80702953  0.42134751  0.86887927     0.07800
Br860      Br  0.81701472  0.45288396  0.89784413    -0.02800
C861        C  0.11828456  0.41333155  0.87189006    -0.09400
C862        C  0.13360819  0.43275575  0.88198079     0.06800
C863        C  0.16488995  0.43482220  0.87937844    -0.03200
C864        C  0.17922366  0.41931514  0.86681916    -0.07600
C865        C  0.16354151  0.40058278  0.85646808     0.05900
C866        C  0.13246591  0.39779924  0.85947568    -0.02700
Br867      Br  0.10693351  0.37275734  0.84736592    -0.02400
H868        H  0.09504045  0.40858718  0.87374382     0.09800
H869        H  0.20303631  0.42157926  0.86574054     0.07800
Br870      Br  0.19015467  0.45707476  0.89309797    -0.02800
C871        C  0.98708279  0.45724090  0.92393990    -0.09400
C872        C  0.97232715  0.46619946  0.91003850     0.06800
C873        C  0.98973196  0.47455093  0.89645334    -0.03200
C874        C  0.02077219  0.47221345  0.89672202    -0.07600
C875        C  0.03556992  0.46194327  0.91035044     0.05900
C876        C  0.01833627  0.45499461  0.92419530    -0.02700
Br877      Br  0.03576618  0.43986440  0.94332270    -0.02400
H878        H  0.97417971  0.45058502  0.93444438     0.09800
H879        H  0.03354323  0.47874305  0.88614768     0.07800
Br880      Br  0.97291110  0.49032008  0.87721147    -0.02800
C881        C  0.09272940  0.56919539  0.92961846    -0.09400
C882        C  0.12144653  0.58013779  0.93234286     0.06800
C883        C  0.14594861  0.56496271  0.92535034    -0.03200
C884        C  0.14134534  0.53834276  0.91713721    -0.07600
C885        C  0.11268145  0.52615011  0.91583491     0.05900
C886        C  0.08818782  0.54290004  0.92144347    -0.02700
Br887      Br  0.04761873  0.53227904  0.91786487    -0.02400
H888        H  0.07334192  0.58092655  0.93412475     0.09800
H889        H  0.16048403  0.52612134  0.91271648     0.07800
Br890      Br  0.18625418  0.57832423  0.92708974    -0.02800
C891        C  0.89699352  0.57569648  0.92362925    -0.09400
C892        C  0.87330986  0.57843042  0.93483202     0.06800
C893        C  0.85517306  0.55339935  0.93800566    -0.03200
C894        C  0.86152323  0.52656560  0.93034624    -0.07600
C895        C  0.88617152  0.52381498  0.91988220     0.05900
C896        C  0.90373063  0.54872030  0.91643304    -0.02700
Br897      Br  0.93794496  0.54669862  0.90247521    -0.02400
H898        H  0.91145826  0.59430979  0.92098508     0.09800
H899        H  0.84778978  0.50742234  0.93302750     0.07800
Br900      Br  0.82202025  0.55382048  0.95284036    -0.02800
C901        C  0.98495673  0.69640124  0.97297002    -0.09400
C902        C  0.97082711  0.68770131  0.95894880     0.06800
C903        C  0.98817002  0.68379719  0.94486297    -0.03200
C904        C  0.01918972  0.68468288  0.94558707    -0.07600
C905        C  0.03336747  0.68940704  0.96015037     0.05900
C906        C  0.01597285  0.69739401  0.97367718    -0.02700
Br907      Br  0.03294847  0.70900679  0.99357658    -0.02400
H908        H  0.97196540  0.70062036  0.98376102     0.09800
H909        H  0.03219361  0.67958642  0.93491841     0.07800
Br910      Br  0.97117667  0.67635503  0.92438359    -0.02800
C911        C  0.86468222  0.99144975  0.94053669    -0.09400
C912        C  0.88597390  0.96910498  0.93805798     0.06800
C913        C  0.91031668  0.97499497  0.92739078    -0.03200
C914        C  0.91368608  0.00300084  0.92037340    -0.07600
C915        C  0.89304638  0.02541623  0.92339616     0.05900
C916        C  0.86806261  0.01934655  0.93331093    -0.02700
Br917      Br  0.83861941  0.04876199  0.93788720    -0.02400
H918        H  0.84584643  0.98762712  0.94857428     0.09800
H919        H  0.93281181  0.00744353  0.91263084     0.07800
Br920      Br  0.94008600  0.94631392  0.92160260    -0.02800
C921        C  0.82890614  0.79136973  0.97124715    -0.09400
C922        C  0.84161329  0.80718512  0.95827090     0.06800
C923        C  0.84831674  0.79160903  0.94403430    -0.03200
C924        C  0.84622412  0.76074290  0.94389480    -0.07600
C925        C  0.83748029  0.74466736  0.95766104     0.05900
C926        C  0.82660430  0.76052892  0.97105148    -0.02700
Br927      Br  0.81014200  0.74180738  0.98995073    -0.02400
H928        H  0.82253750  0.80280468  0.98210763     0.09800
H929        H  0.85379147  0.74920000  0.93327945     0.07800
Br930      Br  0.86280007  0.81023574  0.92466179    -0.02800
C931        C  0.12664495  0.96739802  0.92646295    -0.09400
C932        C  0.13399118  0.96695213  0.94277498     0.06800
C933        C  0.13706201  0.99417623  0.95070793    -0.03200
C934        C  0.13116301  0.02062402  0.94260140    -0.07600
C935        C  0.12275104  0.02095402  0.92652260     0.05900
C936        C  0.12140782  0.99404484  0.91828151    -0.02700
Br937      Br  0.11039554  0.99223207  0.89626894    -0.02400
H938        H  0.12419201  0.94682780  0.92011663     0.09800
H939        H  0.13263651  0.04116291  0.94905816     0.07800
Br940      Br  0.14679566  0.99721499  0.97290005    -0.02800
C941        C  0.16906640  0.78965904  0.94507684    -0.09400
C942        C  0.17467144  0.80253446  0.95997001     0.06800
C943        C  0.18522886  0.78408559  0.97236832    -0.03200
C944        C  0.18419627  0.75331955  0.97072341    -0.07600
C945        C  0.17354520  0.74045599  0.95671697     0.05900
C946        C  0.16890502  0.75893453  0.94330272    -0.02700
Br947      Br  0.16095474  0.74362434  0.92247301    -0.02400
H948        H  0.16255121  0.80333601  0.93504401     0.09800
H949        H  0.18936250  0.73954997  0.98095878     0.07800
Br950      Br  0.19965152  0.79911528  0.99216563    -0.02800
C951        C  0.98859733  0.84249695  0.97850251    -0.09400
C952        C  0.97463084  0.85233423  0.96457081     0.06800
C953        C  0.99183257  0.85651601  0.95046821    -0.03200
C954        C  0.02275185  0.85579345  0.95118661    -0.07600
C955        C  0.03695513  0.85051045  0.96572982     0.05900
C956        C  0.01966410  0.84135447  0.97919158    -0.02700
Br957      Br  0.03645431  0.83046256  0.99935718    -0.02400
H958        H  0.97553240  0.83825046  0.98930830     0.09800
H959        H  0.03572058  0.86135282  0.94051753     0.07800
Br960      Br  0.97456415  0.86480183  0.93006417    -0.02800
C961        C  0.71831175  0.17921600  0.80962241    -0.09400
C962        C  0.70895619  0.15006974  0.80679915     0.06800
C963        C  0.72699761  0.12666042  0.81223712    -0.03200
C964        C  0.75374948  0.13276718  0.81996916    -0.07600
C965        C  0.76383883  0.16190038  0.82193799     0.05900
C966        C  0.74535834  0.18526556  0.81697337    -0.02700
Br967      Br  0.75474994  0.22593495  0.82065074    -0.02400
H968        H  0.70472342  0.19765069  0.80581810     0.09800
H969        H  0.76722468  0.11447333  0.82403226     0.07800
Br970      Br  0.71648085  0.08595420  0.80971630    -0.02800
C971        C  0.27655356  0.16416365  0.82930195    -0.09400
C972        C  0.25179013  0.14991019  0.82303802     0.06800
C973        C  0.25637840  0.12873326  0.81099445    -0.03200
C974        C  0.28516120  0.12330343  0.80485659    -0.07600
C975        C  0.30989334  0.13894261  0.81038025     0.05900
C976        C  0.30531066  0.15920851  0.82303216    -0.02700
Br977      Br  0.33711388  0.18083320  0.83251427    -0.02400
H978        H  0.27341926  0.17974051  0.83894387     0.09800
H979        H  0.28799563  0.10760650  0.79525178     0.07800
Br980      Br  0.22414923  0.10673488  0.80240575    -0.02800
C981        C  0.52852807  0.10174031  0.80259125    -0.09400
C982        C  0.54331366  0.09643107  0.78792932     0.06800
C983        C  0.52650345  0.08536741  0.77517870    -0.03200
C984        C  0.49536967  0.08459638  0.77643156    -0.07600
C985        C  0.48027103  0.09441789  0.79027571     0.05900
C986        C  0.49733773  0.10065386  0.80390519    -0.02700
Br987      Br  0.47976493  0.10959458  0.82441388    -0.02400
H988        H  0.54100475  0.10911967  0.81276457     0.09800
H989        H  0.48294064  0.07848300  0.76599765     0.07800
Br990      Br  0.54432701  0.07257950  0.75534193    -0.02800
C991        C  0.27506744  0.35195558  0.82129777    -0.09400
C992        C  0.25563358  0.37605118  0.82068366     0.06800
C993        C  0.26529402  0.40216838  0.81283439    -0.03200
C994        C  0.29320662  0.40302351  0.80491842    -0.07600
C995        C  0.31197538  0.37815367  0.80468926     0.05900
C996        C  0.30302838  0.35283359  0.81361230    -0.02700
Br997      Br  0.32814905  0.31895243  0.81642054    -0.02400
H998        H  0.26847104  0.33225288  0.82784530     0.09800
H999        H  0.29969031  0.42282344  0.79837821     0.07800
Br1000     Br  0.24050258  0.43657579  0.81166687    -0.02800
C1001       C  0.42325013  0.24080728  0.79694141    -0.09400
C1002       C  0.42959196  0.22476110  0.78303059     0.06800
C1003       C  0.43850940  0.23998858  0.76897390    -0.03200
C1004       C  0.43637751  0.27068384  0.76839082    -0.07600
C1005       C  0.42592981  0.28657524  0.78171411     0.05900
C1006       C  0.42130353  0.27153872  0.79642679    -0.02700
Br1007     Br  0.40844441  0.29059602  0.81577641    -0.02400
H1008       H  0.41697240  0.22937751  0.80793735     0.09800
H1009       H  0.44136257  0.28201613  0.75718765     0.07800
Br1010     Br  0.45265628  0.22014868  0.75007892    -0.02800
C1011       C  0.76368854  0.38824024  0.80271406    -0.09400
C1012       C  0.76265930  0.38486063  0.81944434     0.06800
C1013       C  0.73479445  0.38715765  0.82741160    -0.03200
C1014       C  0.70880177  0.39168240  0.81860331    -0.07600
C1015       C  0.70973309  0.39448204  0.80179572     0.05900
C1016       C  0.73788892  0.39332041  0.79391205    -0.02700
Br1017     Br  0.74302800  0.39633680  0.77108690    -0.02400
H1018       H  0.78478664  0.38654394  0.79632051     0.09800
H1019       H  0.68756432  0.39224122  0.82495445     0.07800
Br1020     Br  0.73041168  0.38162892  0.85011049    -0.02800
C1021       C  0.52534852  0.43245082  0.76624238    -0.09400
C1022       C  0.53979517  0.42667741  0.78071015     0.06800
C1023       C  0.52208023  0.42318982  0.79474993    -0.03200
C1024       C  0.49101994  0.42123117  0.79370322    -0.07600
C1025       C  0.47682339  0.42282817  0.77885970     0.05900
C1026       C  0.49427190  0.43053098  0.76516595    -0.02700
Br1027     Br  0.47808605  0.43522850  0.74419974    -0.02400
H1028       H  0.53837384  0.43578815  0.75533611     0.09800
H1029       H  0.47809959  0.41644574  0.80449207     0.07800
Br1030     Br  0.53882895  0.41943938  0.81562501    -0.02800
C1031       C  0.59044482  0.27976040  0.76526509    -0.09400
C1032       C  0.59632361  0.29490007  0.77941421     0.06800
C1033       C  0.59648239  0.27912094  0.79402425    -0.03200
C1034       C  0.59475281  0.24834364  0.79396840    -0.07600
C1035       C  0.59290651  0.23295528  0.77952681     0.05900
C1036       C  0.58864722  0.24902630  0.76518769    -0.02700
Br1037     Br  0.58169814  0.23062682  0.74495915    -0.02400
H1038       H  0.58919716  0.29166640  0.75399899     0.09800
H1039       H  0.59708221  0.23642254  0.80516449     0.07800
Br1040     Br  0.59972937  0.29812541  0.81435030    -0.02800
C1041       C  0.21031266  0.75296596  0.16517261    -0.09400
C1042       C  0.18365664  0.73915992  0.16088220     0.06800
C1043       C  0.15872074  0.75715902  0.15772256    -0.03200
C1044       C  0.16115897  0.78796914  0.15822466    -0.07600
C1045       C  0.18809906  0.80204023  0.16187189     0.05900
C1046       C  0.21276530  0.78396695  0.16565610    -0.02700
Br1047     Br  0.25102470  0.79972001  0.17045954    -0.02400
H1048       H  0.22970063  0.73957538  0.16765226     0.09800
H1049       H  0.14155349  0.80109021  0.15583437     0.07800
Br1050     Br  0.12007475  0.74120254  0.15347066    -0.02800
C1051       C  0.91942359  0.93859933  0.04094885    -0.09400
C1052       C  0.89328023  0.94051329  0.05031938     0.06800
C1053       C  0.86564212  0.93614153  0.04291774    -0.03200
C1054       C  0.86480921  0.92827844  0.02676489    -0.07600
C1055       C  0.89105694  0.92520667  0.01749403     0.05900
C1056       C  0.91864578  0.93142792  0.02471648    -0.02700
Br1057     Br  0.95631293  0.93161724  0.01336699    -0.02400
H1058       H  0.94078123  0.94269569  0.04631065     0.09800
H1059       H  0.84336371  0.92450721  0.02144702     0.07800
Br1060     Br  0.82813958  0.94273710  0.05370173    -0.02800
C1061       C  0.15333669  0.91154569  0.10953820    -0.09400
C1062       C  0.12891230  0.93074285  0.11199581     0.06800
C1063       C  0.12138226  0.93744688  0.12810879    -0.03200
C1064       C  0.13511663  0.92246930  0.14083926    -0.07600
C1065       C  0.15786345  0.90135492  0.13826538     0.05900
C1066       C  0.16776334  0.89739188  0.12221515    -0.02700
Br1067     Br  0.20186498  0.87378114  0.11640278    -0.02400
H1068       H  0.16267386  0.90808244  0.09774437     0.09800
H1069       H  0.12835781  0.92868862  0.15276322     0.07800
Br1070     Br  0.09388575  0.96829302  0.13383069    -0.02800
C1071       C  0.01644713  0.98662572  0.08780796    -0.09400
C1072       C  0.03121596  0.95966266  0.08532626     0.06800
C1073       C  0.01411406  0.93435082  0.08217312    -0.03200
C1074       C  0.98287984  0.93605130  0.08214387    -0.07600
C1075       C  0.96809937  0.96287712  0.08498866     0.05900
C1076       C  0.98519682  0.98840144  0.08758412    -0.02700
Br1077     Br  0.96675195  0.02581469  0.09163274    -0.02400
H1078       H  0.02918305  0.00622701  0.09036183     0.09800
H1079       H  0.97003279  0.91631571  0.07992822     0.07800
Br1080     Br  0.03253895  0.89714116  0.07751447    -0.02800
C1081       C  0.08439885  0.93117651  0.04242810    -0.09400
C1082       C  0.10965568  0.93497910  0.05174183     0.06800
C1083       C  0.13800956  0.92944257  0.04479405    -0.03200
C1084       C  0.14051141  0.92025183  0.02889035    -0.07600
C1085       C  0.11523737  0.91598463  0.01953376     0.05900
C1086       C  0.08677453  0.92143767  0.02659746    -0.02700
Br1087     Br  0.04983090  0.91553884  0.01585624    -0.02400
H1088       H  0.06250360  0.93516984  0.04763491     0.09800
H1089       H  0.16253750  0.91636819  0.02383942     0.07800
Br1090     Br  0.17442897  0.93516593  0.05600598    -0.02800
C1091       C  0.85873827  0.62682290  0.02322511    -0.09400
C1092       C  0.88435041  0.62783420  0.01324591     0.06800
C1093       C  0.91218131  0.62130049  0.02008366    -0.03200
C1094       C  0.91382720  0.61454657  0.03635885    -0.07600
C1095       C  0.88853438  0.61418808  0.04641665     0.05900
C1096       C  0.86055258  0.61995413  0.03960010    -0.02700
Br1097     Br  0.82372402  0.61660295  0.05145903    -0.02400
H1098       H  0.83708567  0.63130281  0.01828782     0.09800
H1099       H  0.93511736  0.60955156  0.04108405     0.07800
Br1100     Br  0.94951467  0.62080510  0.00839292    -0.02800
C1101       C  0.13683825  0.65770166  0.12261579    -0.09400
C1102       C  0.15654481  0.64248349  0.13274071     0.06800
C1103       C  0.15944575  0.61163103  0.13024783    -0.03200
C1104       C  0.14563090  0.59788330  0.11728952    -0.07600
C1105       C  0.12727534  0.61356463  0.10663908     0.05900
C1106       C  0.12237611  0.64386347  0.10998933    -0.02700
Br1107     Br  0.09486028  0.66813211  0.09843816    -0.02400
H1108       H  0.13103001  0.68041212  0.12474561     0.09800
H1109       H  0.14897457  0.57447986  0.11610227     0.07800
Br1110     Br  0.18044742  0.58592294  0.14451767    -0.02800
C1111       C  0.98313711  0.59826843  0.06715150    -0.09400
C1112       C  0.96690158  0.58736729  0.08043002     0.06800
C1113       C  0.98279434  0.57545341  0.09339801    -0.03200
C1114       C  0.01406628  0.57571511  0.09310169    -0.07600
C1115       C  0.03034512  0.58723090  0.07991291     0.05900
C1116       C  0.01439405  0.59816529  0.06673884    -0.02700
Br1117     Br  0.03340478  0.61598915  0.04836228    -0.02400
H1118       H  0.97176313  0.60834763  0.05744034     0.09800
H1119       H  0.02577357  0.56671133  0.10323703     0.07800
Br1120     Br  0.96307846  0.55776128  0.11168555    -0.02800
C1121       C  0.12202220  0.59110406  0.03519457    -0.09400
C1122       C  0.11277895  0.61223608  0.04645097     0.06800
C1123       C  0.10942992  0.64175564  0.04137002    -0.03200
C1124       C  0.11466502  0.64949071  0.02533593    -0.07600
C1125       C  0.12356074  0.62843388  0.01394231     0.05900
C1126       C  0.12770285  0.59891287  0.01911274    -0.02700
Br1127     Br  0.13946415  0.56787238  0.00484938    -0.02400
H1128       H  0.12476502  0.56831294  0.03893375     0.09800
H1129       H  0.11117836  0.67223096  0.02170586     0.07800
Br1130     Br  0.09527368  0.67217030  0.05535393    -0.02800
C1131       C  0.82532366  0.63335550  0.12321216    -0.09400
C1132       C  0.84216997  0.64961102  0.13415668     0.06800
C1133       C  0.87261544  0.65427600  0.13018596    -0.03200
C1134       C  0.88560943  0.64092169  0.11674182    -0.07600
C1135       C  0.86952525  0.62200607  0.10670620     0.05900
C1136       C  0.83839524  0.62021570  0.10964043    -0.02700
Br1137     Br  0.81148013  0.60178202  0.09531157    -0.02400
H1138       H  0.80158576  0.63111016  0.12467292     0.09800
H1139       H  0.90843416  0.64667653  0.11411175     0.07800
Br1140     Br  0.89839841  0.67914804  0.14233889    -0.02800
C1141       C  0.85932824  0.88957737  0.12600682    -0.09400
C1142       C  0.84141416  0.90438887  0.13746758     0.06800
C1143       C  0.83911450  0.93553826  0.13552520    -0.03200
C1144       C  0.85190712  0.95005451  0.12202596    -0.07600
C1145       C  0.86895296  0.93486083  0.11034600     0.05900
C1146       C  0.87304602  0.90412901  0.11293646    -0.02700
Br1147     Br  0.89916047  0.88021169  0.09988616    -0.02400
H1148       H  0.86485810  0.86660708  0.12752347     0.09800
H1149       H  0.84973470  0.97374102  0.12139358     0.07800
Br1150     Br  0.82163254  0.96058307  0.15158021    -0.02800
C1151       C  0.80441911  0.79160714  0.15285094    -0.09400
C1152       C  0.81695118  0.80574463  0.16608229     0.06800
C1153       C  0.82599044  0.78759734  0.17904966    -0.03200
C1154       C  0.82465696  0.75666695  0.17790526    -0.07600
C1155       C  0.81432351  0.74274839  0.16417808     0.05900
C1156       C  0.80273395  0.76072055  0.15189184    -0.02700
Br1157     Br  0.78230621  0.74447955  0.13403044    -0.02400
H1158       H  0.79560375  0.80469857  0.14313059     0.09800
H1159       H  0.83265125  0.74346088  0.18770100     0.07800
Br1160     Br  0.84192183  0.80235008  0.19849700    -0.02800
C1161       C  0.89322360  0.40177654  0.96605876    -0.09400
C1162       C  0.88326059  0.42292510  0.97713645     0.06800
C1163       C  0.87858353  0.45217119  0.97183194    -0.03200
C1164       C  0.88410169  0.45963888  0.95574536    -0.07600
C1165       C  0.89397527  0.43840573  0.94470863     0.05900
C1166       C  0.89868198  0.40924279  0.95002878    -0.02700
Br1167     Br  0.91521649  0.37937068  0.93635565    -0.02400
H1168       H  0.89748328  0.37932681  0.96997738     0.09800
H1169       H  0.88086496  0.48223567  0.95188512     0.07800
Br1170     Br  0.86715392  0.48332112  0.98609433    -0.02800
C1171       C  0.85708653  0.48965757  0.06050096    -0.09400
C1172       C  0.88297702  0.47317839  0.05727072     0.06800
C1173       C  0.91036838  0.48350565  0.06318992    -0.03200
C1174       C  0.91169694  0.51073033  0.07087467    -0.07600
C1175       C  0.88620928  0.52810654  0.07315393     0.05900
C1176       C  0.85848334  0.51689237  0.06834165    -0.02700
Br1177     Br  0.82219887  0.53863882  0.07073254    -0.02400
H1178       H  0.83582607  0.48204137  0.05624327     0.09800
H1179       H  0.93308405  0.51885890  0.07470413     0.07800
Br1180     Br  0.94699347  0.46171437  0.06147276    -0.02800
C1181       C  0.10942388  0.40827389  0.94633122    -0.09400
C1182       C  0.11786829  0.43707949  0.94204948     0.06800
C1183       C  0.13107218  0.45498185  0.95364515    -0.03200
C1184       C  0.13465524  0.44434542  0.96928643    -0.07600
C1185       C  0.12533677  0.41580161  0.97379346     0.05900
C1186       C  0.11292394  0.39752229  0.96195256    -0.02700
Br1187     Br  0.10095871  0.35735266  0.96586028    -0.02400
H1188       H  0.09964945  0.39411997  0.93747013     0.09800
H1189       H  0.14450465  0.45869849  0.97802139     0.07800
Br1190     Br  0.14624028  0.49346398  0.94872708    -0.02800
C1191       C  0.09293126  0.47865566  0.05778158    -0.09400
C1192       C  0.12208079  0.46980697  0.05354098     0.06800
C1193       C  0.14599070  0.48792636  0.05826622    -0.03200
C1194       C  0.14016436  0.51482809  0.06604313    -0.07600
C1195       C  0.11084780  0.52410564  0.06947177     0.05900
C1196       C  0.08722244  0.50517784  0.06567319    -0.02700
Br1197     Br  0.04661172  0.51341998  0.07158434    -0.02400
H1198       H  0.07409642  0.46497579  0.05480585     0.09800
H1199       H  0.15864853  0.52894675  0.06906220     0.07800
Br1200     Br  0.18695674  0.47743470  0.05473243    -0.02800
C1201       C  0.98710057  0.35288080  0.01727993    -0.09400
C1202       C  0.97250947  0.36217199  0.03138672     0.06800
C1203       C  0.98945603  0.36609631  0.04528387    -0.03200
C1204       C  0.02050567  0.36490472  0.04416613    -0.07600
C1205       C  0.03506227  0.35959095  0.02948182     0.05900
C1206       C  0.01807864  0.35136517  0.01625211    -0.02700
Br1207     Br  0.03568100  0.33848694  0.99638465    -0.02400
H1208       H  0.97450285  0.34825718  0.00667361     0.09800
H1209       H  0.03328815  0.37029168  0.05459877     0.07800
Br1210     Br  0.97241919  0.37519391  0.06590680    -0.02800
C1211       C  0.86848596  0.13671815  0.96758637    -0.09400
C1212       C  0.89344904  0.13600587  0.97743986     0.06800
C1213       C  0.92096038  0.12624044  0.97084026    -0.03200
C1214       C  0.92276161  0.11741020  0.95488026    -0.07600
C1215       C  0.89766431  0.11741073  0.94513170     0.05900
C1216       C  0.87029042  0.12768386  0.95161693    -0.02700
Br1217     Br  0.83394447  0.12861020  0.93994927    -0.02400
H1218       H  0.84722397  0.14417968  0.97236413     0.09800
H1219       H  0.94407643  0.11004851  0.95012031     0.07800
Br1220     Br  0.95679224  0.12229281  0.98290780    -0.02800
C1221       C  0.87736691  0.07830652  0.07123918    -0.09400
C1222       C  0.87511872  0.07801641  0.05443877     0.06800
C1223       C  0.87611931  0.05038700  0.04666911    -0.03200
C1224       C  0.88081764  0.02450250  0.05550536    -0.07600
C1225       C  0.88463075  0.02492232  0.07213443     0.05900
C1226       C  0.88204355  0.05215439  0.08007551    -0.02700
Br1227     Br  0.88705976  0.05527752  0.10271191    -0.02400
H1228       H  0.87678809  0.09911904  0.07750906     0.09800
H1229       H  0.88187672  0.00376802  0.04919013     0.07800
Br1230     Br  0.87144190  0.04574042  0.02401476    -0.02800
C1231       C  0.83471345  0.26224040  0.01916802    -0.09400
C1232       C  0.84073163  0.24696709  0.03343915     0.06800
C1233       C  0.84232908  0.26319288  0.04774396    -0.03200
C1234       C  0.84107780  0.29405610  0.04727222    -0.07600
C1235       C  0.83885033  0.30952857  0.03270749     0.05900
C1236       C  0.83421755  0.29319999  0.01860146    -0.02700
Br1237     Br  0.83215501  0.31113202  0.99772142    -0.02400
H1238       H  0.83351021  0.25023886  0.00805105     0.09800
H1239       H  0.84425897  0.30605875  0.05825666     0.07800
Br1240     Br  0.84846148  0.24480178  0.06820491    -0.02800
C1241       C  0.14689409  0.11654157  0.97251180    -0.09400
C1242       C  0.12146137  0.12384680  0.98168092     0.06800
C1243       C  0.09307792  0.12073484  0.97473374    -0.03200
C1244       C  0.09088085  0.11178128  0.95884068    -0.07600
C1245       C  0.11635629  0.10573903  0.94955544     0.05900
C1246       C  0.14455933  0.10749325  0.95661197    -0.02700
Br1247     Br  0.18042243  0.09605600  0.94544274    -0.02400
H1248       H  0.16876458  0.11813265  0.97766597     0.09800
H1249       H  0.06906844  0.10972099  0.95364342     0.07800
Br1250     Br  0.05612110  0.12693125  0.98622790    -0.02800
C1251       C  0.08878787  0.04024204  0.07332272    -0.09400
C1252       C  0.11317702  0.02205293  0.07656494     0.06800
C1253       C  0.14202304  0.03228885  0.07230767    -0.03200
C1254       C  0.14575407  0.05978381  0.06456561    -0.07600
C1255       C  0.12111878  0.07735978  0.06063217     0.05900
C1256       C  0.09234486  0.06752774  0.06555342    -0.02700
Br1257     Br  0.05646404  0.08977434  0.06215468    -0.02400
H1258       H  0.06655071  0.03283285  0.07650814     0.09800
H1259       H  0.16794068  0.06671691  0.06087908     0.07800
Br1260     Br  0.17687625  0.00851765  0.07506326    -0.02800
C1261       C  0.16732673  0.25859622  0.04869649    -0.09400
C1262       C  0.17318104  0.24243354  0.03469854     0.06800
C1263       C  0.18328390  0.25815226  0.02090764    -0.03200
C1264       C  0.18247552  0.28916787  0.02066563    -0.07600
C1265       C  0.17232368  0.30517315  0.03404002     0.05900
C1266       C  0.16719270  0.28953443  0.04855060    -0.02700
Br1267     Br  0.15838145  0.30871531  0.06848949    -0.02400
H1268       H  0.16087254  0.24717180  0.05966142     0.09800
H1269       H  0.18767104  0.30063996  0.00953550     0.07800
Br1270     Br  0.19624694  0.23914482  0.00155731    -0.02800
C1271       C  0.02270415  0.17626060  0.05013126    -0.09400
C1272       C  0.03868950  0.18908921  0.03727814     0.06800
C1273       C  0.02302359  0.20396112  0.02517216    -0.03200
C1274       C  0.99202293  0.20238442  0.02507415    -0.07600
C1275       C  0.97614802  0.18630690  0.03689942     0.05900
C1276       C  0.99171718  0.17468415  0.05008049    -0.02700
Br1277     Br  0.97304993  0.15425192  0.06787189    -0.02400
H1278       H  0.03437426  0.16530017  0.05972601     0.09800
H1279       H  0.98045890  0.21253094  0.01519211     0.07800
Br1280     Br  0.04237698  0.22587776  0.00813422    -0.02800
C1281       C  0.30008870  0.65343924  0.16872200    -0.09400
C1282       C  0.30006000  0.64062376  0.18417817     0.06800
C1283       C  0.27221979  0.63455433  0.19177155    -0.03200
C1284       C  0.24576856  0.64202383  0.18414457    -0.07600
C1285       C  0.24596254  0.65542378  0.16897052     0.05900
C1286       C  0.27342176  0.66084370  0.16114605    -0.02700
Br1287     Br  0.27562433  0.68081108  0.14084105    -0.02400
H1288       H  0.32098887  0.65883153  0.16271123     0.09800
H1289       H  0.22476551  0.63790441  0.19032522     0.07800
Br1290     Br  0.26794933  0.61842662  0.21303707    -0.02800
C1291       C  0.71533816  0.62855474  0.18512360    -0.09400
C1292       C  0.69909276  0.65285739  0.19090977     0.06800
C1293       C  0.71059781  0.68160843  0.18790580    -0.03200
C1294       C  0.73810886  0.68527990  0.18007160    -0.07600
C1295       C  0.75472448  0.66106723  0.17474302     0.05900
C1296       C  0.74286910  0.63236077  0.17710821    -0.02700
Br1297     Br  0.76371837  0.59726552  0.17076601    -0.02400
H1298       H  0.70699291  0.60638908  0.18720486     0.09800
H1299       H  0.74660709  0.70743061  0.17806938     0.07800
Br1300     Br  0.69005179  0.71740738  0.19354073    -0.02800
C1301       C  0.51290873  0.59580393  0.22247389    -0.09400
C1302       C  0.53017730  0.60246655  0.20871047     0.06800
C1303       C  0.51542055  0.60619687  0.19404871    -0.03200
C1304       C  0.48424312  0.60772769  0.19387727    -0.07600
C1305       C  0.46709255  0.60477852  0.20803594     0.05900
C1306       C  0.48173579  0.59690039  0.22229427    -0.02700
Br1307     Br  0.46129459  0.59142268  0.24251703    -0.02400
H1308       H  0.52362989  0.59233128  0.23383018     0.09800
H1309       H  0.47343775  0.61279813  0.18271161     0.07800
Br1310     Br  0.53637754  0.61034486  0.17392587    -0.02800
C1311       C  0.72473691  0.88857733  0.20431732    -0.09400
C1312       C  0.70049249  0.89510276  0.19471781     0.06800
C1313       C  0.70522579  0.89676136  0.17803473    -0.03200
C1314       C  0.73392670  0.89226656  0.17139392    -0.07600
C1315       C  0.75868186  0.88550499  0.18098850     0.05900
C1316       C  0.75320259  0.88332889  0.19787156    -0.02700
Br1317     Br  0.78136401  0.87355083  0.21402693    -0.02400
H1318       H  0.72124204  0.88652911  0.21714921     0.09800
H1319       H  0.73656314  0.89351372  0.15852063     0.07800
Br1320     Br  0.67355237  0.90612486  0.16381159    -0.02800
C1321       C  0.59572788  0.78381739  0.20133269    -0.09400
C1322       C  0.58921023  0.79776587  0.21590041     0.06800
C1323       C  0.57907067  0.78055361  0.22906140    -0.03200
C1324       C  0.57812394  0.74988841  0.22777735    -0.07600
C1325       C  0.58746927  0.73568183  0.21366779     0.05900
C1326       C  0.59487739  0.75311639  0.20004655    -0.02700
Br1327     Br  0.60606418  0.73712247  0.17958174    -0.02400
H1328       H  0.60289349  0.79682440  0.19101910     0.09800
H1329       H  0.57195052  0.73704048  0.23831957     0.07800
Br1330     Br  0.56979623  0.79663099  0.24976407    -0.02800
C1331       C  0.27652843  0.92046598  0.19146172    -0.09400
C1332       C  0.30239681  0.90384076  0.18831182     0.06800
C1333       C  0.30098846  0.88109262  0.17677225    -0.03200
C1334       C  0.27400838  0.87459389  0.16944207    -0.07600
C1335       C  0.24802026  0.89016159  0.17323881     0.05900
C1336       C  0.24971127  0.91422114  0.18379608    -0.02700
Br1337     Br  0.21604332  0.93916606  0.18819408    -0.02400
H1338       H  0.27702760  0.93813870  0.20009069     0.09800
H1339       H  0.27322468  0.85688199  0.16087375     0.07800
Br1340     Br  0.33405911  0.85598184  0.17125751    -0.02800
C1341       C  0.41017578  0.78884574  0.21199122    -0.09400
C1342       C  0.38264879  0.80349929  0.21125069     0.06800
C1343       C  0.35666378  0.78695940  0.20834009    -0.03200
C1344       C  0.35846455  0.75638308  0.20728430    -0.07600
C1345       C  0.38562456  0.74160571  0.20905723     0.05900
C1346       C  0.41189321  0.75811742  0.21093096    -0.02700
Br1347     Br  0.45024741  0.74018782  0.21356300    -0.02400
H1348       H  0.43035785  0.80119381  0.21408558     0.09800
H1349       H  0.33822828  0.74394970  0.20542160     0.07800
Br1350     Br  0.31780158  0.80399463  0.20572072    -0.02800
C1351       C  0.48385898  0.93202100  0.20137301    -0.09400
C1352       C  0.46754226  0.93550980  0.21575495     0.06800
C1353       C  0.48340619  0.94217667  0.22973114    -0.03200
C1354       C  0.51467095  0.94140363  0.22943372    -0.07600
C1355       C  0.53091475  0.93427456  0.21542139     0.05900
C1356       C  0.51509165  0.93172197  0.20102673    -0.02700
Br1357     Br  0.53423254  0.92608267  0.18053655    -0.02400
H1358       H  0.47224272  0.92785213  0.19038747     0.09800
H1359       H  0.52618374  0.94422896  0.24057847     0.07800
Br1360     Br  0.46427991  0.94920995  0.25009008    -0.02800
C1361       C  0.51670570  0.42695281  0.56868848    -0.09400
C1362       C  0.53149387  0.43700629  0.58226640     0.06800
C1363       C  0.51427993  0.44852677  0.59508946    -0.03200
C1364       C  0.48313999  0.44838207  0.59448540    -0.07600
C1365       C  0.46829705  0.43769957  0.58109555     0.05900
C1366       C  0.48543677  0.42724250  0.56800469    -0.02700
Br1367     Br  0.46739705  0.41130558  0.54937916    -0.02400
H1368       H  0.52952500  0.41823566  0.55868906     0.09800
H1369       H  0.47035413  0.45723631  0.60446311     0.07800
Br1370     Br  0.53186439  0.46721726  0.61313722    -0.02800
C1371       C  0.35700647  0.36442354  0.62019515    -0.09400
C1372       C  0.34194993  0.37888182  0.63283140     0.06800
C1373       C  0.34147700  0.41024780  0.63226939    -0.03200
C1374       C  0.35461753  0.42577624  0.61933707    -0.07600
C1375       C  0.36932725  0.41117814  0.60663419     0.05900
C1376       C  0.37077672  0.37991166  0.60751935    -0.02700
Br1377     Br  0.39253755  0.35616381  0.59227231    -0.02400
H1378       H  0.35950696  0.34084435  0.62008141     0.09800
H1379       H  0.35406465  0.44951983  0.61983168     0.07800
Br1380     Br  0.32460119  0.43397763  0.64914508    -0.02800
C1381       C  0.32205087  0.36666867  0.70487934    -0.09400
C1382       C  0.34276385  0.35986160  0.69266476     0.06800
C1383       C  0.37311198  0.35732837  0.69651347    -0.03200
C1384       C  0.38213983  0.36208819  0.71222153    -0.07600
C1385       C  0.36152705  0.36960332  0.72438006     0.05900
C1386       C  0.33110329  0.37163564  0.72057904    -0.02700
Br1387     Br  0.30056971  0.37883169  0.73644702    -0.02400
H1388       H  0.29860717  0.36809279  0.70222797     0.09800
H1389       H  0.40549593  0.35971962  0.71496939     0.07800
Br1390     Br  0.40302945  0.34532198  0.68120281    -0.02800
C1391       C  0.34378924  0.23308285  0.66058753    -0.09400
C1392       C  0.31776881  0.21794234  0.66536461     0.06800
C1393       C  0.29196908  0.23459177  0.66898851    -0.03200
C1394       C  0.29254475  0.26556564  0.66763813    -0.07600
C1395       C  0.31827632  0.28059887  0.66228859     0.05900
C1396       C  0.34432392  0.26391988  0.65907784    -0.02700
Br1397     Br  0.38192617  0.28176549  0.65343344    -0.02400
H1398       H  0.36396428  0.22076496  0.65799192     0.09800
H1399       H  0.27244458  0.27787815  0.67029765     0.07800
Br1400     Br  0.25459769  0.21629721  0.67436291    -0.02800
C1401       C  0.35589774  0.16909819  0.70786667    -0.09400
C1402       C  0.35036448  0.14335593  0.69932470     0.06800
C1403       C  0.35561602  0.11568879  0.70675168    -0.03200
C1404       C  0.36484984  0.11440593  0.72267201    -0.07600
C1405       C  0.36927535  0.14023360  0.73151512     0.05900
C1406       C  0.36562757  0.16790197  0.72365562    -0.02700
Br1407     Br  0.37384873  0.20531915  0.73327461    -0.02400
H1408       H  0.35242049  0.19041698  0.70221469     0.09800
H1409       H  0.36766928  0.09298443  0.72830170     0.07800
Br1410     Br  0.34723183  0.07881559  0.69657212    -0.02800
C1411       C  0.35932938  0.09466925  0.64151752    -0.09400
C1412       C  0.33904124  0.11829933  0.64019044     0.06800
C1413       C  0.32845384  0.12483473  0.62470480    -0.03200
C1414       C  0.34161534  0.11166777  0.61117858    -0.07600
C1415       C  0.36476580  0.09071662  0.61246086     0.05900
C1416       C  0.37185683  0.08090544  0.62806380    -0.02700
Br1417     Br  0.39828358  0.04839065  0.63218662    -0.02400
H1418       H  0.36531631  0.08588612  0.65303478     0.09800
H1419       H  0.33270790  0.11768530  0.59974273     0.07800
Br1420     Br  0.29524909  0.15067961  0.62098936    -0.02800
C1421       C  0.51316761  0.04637078  0.58022478    -0.09400
C1422       C  0.52743449  0.07287412  0.58410668     0.06800
C1423       C  0.50965517  0.09763617  0.58798081    -0.03200
C1424       C  0.47860344  0.09511085  0.58868383    -0.07600
C1425       C  0.46419874  0.06845450  0.58517553     0.05900
C1426       C  0.48193731  0.04391027  0.58081573    -0.02700
Br1427     Br  0.46527770  0.00571839  0.57703684    -0.02400
H1428       H  0.52638989  0.02715133  0.57722716     0.09800
H1429       H  0.46552091  0.11445911  0.59166231     0.07800
Br1430     Br  0.52618482  0.13617887  0.59130940    -0.02800
C1431       C  0.67998741  0.40321295  0.62083534    -0.09400
C1432       C  0.66624551  0.38404309  0.63209403     0.06800
C1433       C  0.63572703  0.37728755  0.62990344    -0.03200
C1434       C  0.61959162  0.39116545  0.61784929    -0.07600
C1435       C  0.63275761  0.41162539  0.60709792     0.05900
C1436       C  0.66399197  0.41610664  0.60825882    -0.02700
Br1437     Br  0.68722285  0.43762415  0.59248381    -0.02400
H1438       H  0.70357008  0.40752062  0.62121858     0.09800
H1439       H  0.59680985  0.38429031  0.61660822     0.07800
Br1440     Br  0.61414965  0.34811528  0.64241751    -0.02800
C1441       C  0.65599878  0.34697289  0.71810860    -0.09400
C1442       C  0.65373176  0.37600601  0.72391892     0.06800
C1443       C  0.65880006  0.39970250  0.71304297    -0.03200
C1444       C  0.66690887  0.39391856  0.69710397    -0.07600
C1445       C  0.66989075  0.36489782  0.69152466     0.05900
C1446       C  0.66372667  0.34132485  0.70213555    -0.02700
Br1447     Br  0.66328940  0.30107964  0.69530145    -0.02400
H1448       H  0.65136549  0.32835324  0.72598824     0.09800
H1449       H  0.67144054  0.41230769  0.68904239     0.07800
Br1450     Br  0.65560563  0.44049071  0.71887627    -0.02800
C1451       C  0.67306652  0.11052724  0.62385089    -0.09400
C1452       C  0.65766058  0.12756982  0.63540712     0.06800
C1453       C  0.62663015  0.13139064  0.63325926    -0.03200
C1454       C  0.61211300  0.11790871  0.62058657    -0.07600
C1455       C  0.62705543  0.09967647  0.60943669     0.05900
C1456       C  0.65839440  0.09709710  0.61103616    -0.02700
Br1457     Br  0.68333075  0.07692625  0.59574155    -0.02400
H1458       H  0.69694059  0.10827197  0.62419926     0.09800
H1459       H  0.58893823  0.12327778  0.61937070     0.07800
Br1460     Br  0.60168771  0.15541641  0.64682257    -0.02800
C1461       C  0.71725069  0.23924836  0.66112410    -0.09400
C1462       C  0.68958237  0.22594315  0.65819409     0.06800
C1463       C  0.66477768  0.24437009  0.65560129    -0.03200
C1464       C  0.66817490  0.27503405  0.65522693    -0.07600
C1465       C  0.69586991  0.28841199  0.65774032     0.05900
C1466       C  0.72055228  0.27017686  0.66092955    -0.02700
Br1467     Br  0.75943929  0.28616003  0.66415841    -0.02400
H1468       H  0.73651789  0.22550290  0.66329837     0.09800
H1469       H  0.64874605  0.28866769  0.65326265     0.07800
Br1470     Br  0.62506965  0.22947844  0.65393270    -0.02800
C1471       C  0.66156290  0.12270947  0.70168937    -0.09400
C1472       C  0.66311012  0.15113278  0.69481293     0.06800
C1473       C  0.65857571  0.17572181  0.70471140    -0.03200
C1474       C  0.65370771  0.17174736  0.72111620    -0.07600
C1475       C  0.65267510  0.14343586  0.72820005     0.05900
C1476       C  0.65623867  0.11862372  0.71818017    -0.02700
Br1477     Br  0.65456594  0.07869772  0.72601939    -0.02400
H1478       H  0.66516681  0.10354954  0.69423939     0.09800
H1479       H  0.65014868  0.19121411  0.72833443     0.07800
Br1480     Br  0.65663702  0.21532457  0.69652613    -0.02800
C1481       C  0.41061881  0.55122073  0.56191683    -0.09400
C1482       C  0.38203402  0.55953871  0.55693045     0.06800
C1483       C  0.35753901  0.54155769  0.56148274    -0.03200
C1484       C  0.36235517  0.51516172  0.57000573    -0.07600
C1485       C  0.39129335  0.50606718  0.57392597     0.05900
C1486       C  0.41534858  0.52494491  0.57032736    -0.02700
Br1487     Br  0.45513147  0.51615191  0.57678086    -0.02400
H1488       H  0.42968211  0.56509407  0.55908399     0.09800
H1489       H  0.34364906  0.50066689  0.57256925     0.07800
Br1490     Br  0.31757335  0.55002645  0.55517549    -0.02800
C1491       C  0.59193188  0.54631054  0.56012403    -0.09400
C1492       C  0.62095818  0.55608785  0.55634031     0.06800
C1493       C  0.64518880  0.53805902  0.56075879    -0.03200
C1494       C  0.63975942  0.51048355  0.56813044    -0.07600
C1495       C  0.61052906  0.50049186  0.57130047     0.05900
C1496       C  0.58657393  0.51909874  0.56749338    -0.02700
Br1497     Br  0.54588041  0.50972736  0.57263129    -0.02400
H1498       H  0.57291395  0.56001259  0.55734288     0.09800
H1499       H  0.65845016  0.49638520  0.57096412     0.07800
Br1500     Br  0.68587314  0.54891712  0.55651476    -0.02800
C1501       C  0.51731831  0.68979702  0.53320665    -0.09400
C1502       C  0.53155736  0.67017098  0.54367149     0.06800
C1503       C  0.51419844  0.65490050  0.55535862    -0.03200
C1504       C  0.48316444  0.65568313  0.55450912    -0.07600
C1505       C  0.46909702  0.67192078  0.54241996     0.05900
C1506       C  0.48632278  0.69121592  0.53271460    -0.02700
Br1507     Br  0.46900194  0.71942894  0.51835736    -0.02400
H1508       H  0.53031674  0.70300036  0.52475757     0.09800
H1509       H  0.47018408  0.64163967  0.56255294     0.07800
Br1510     Br  0.53080044  0.63019086  0.57173486    -0.02800
C1511       C  0.37952697  0.95084289  0.57607820    -0.09400
C1512       C  0.36890396  0.95004688  0.56034425     0.06800
C1513       C  0.36321788  0.97701882  0.55237207    -0.03200
C1514       C  0.36978796  0.00375975  0.55974837    -0.07600
C1515       C  0.38115006  0.00450524  0.57522282     0.05900
C1516       C  0.38516879  0.97777337  0.58362953    -0.02700
Br1517     Br  0.40021588  0.97686745  0.60494449    -0.02400
H1518       H  0.38413608  0.93041069  0.58239474     0.09800
H1519       H  0.36633772  0.02417282  0.55323298     0.07800
Br1520     Br  0.34901653  0.97914338  0.53088777    -0.02800
C1521       C  0.32075381  0.73729128  0.52552142    -0.09400
C1522       C  0.33116226  0.72209308  0.53902413     0.06800
C1523       C  0.33562763  0.73830212  0.55316042    -0.03200
C1524       C  0.33492999  0.76923588  0.55263116    -0.07600
C1525       C  0.32938184  0.78457692  0.53828543     0.05900
C1526       C  0.31970278  0.76818739  0.52504418    -0.02700
Br1527     Br  0.30686629  0.78620938  0.50548423    -0.02400
H1528       H  0.31588868  0.72531863  0.51472767     0.09800
H1529       H  0.34112279  0.78123646  0.56320627     0.07800
Br1530     Br  0.34461220  0.71996762  0.57332047    -0.02800
C1531       C  0.63523002  0.97402797  0.55849343    -0.09400
C1532       C  0.61339125  0.95241809  0.56158779     0.06800
C1533       C  0.58889652  0.95967088  0.57177701    -0.03200
C1534       C  0.58620344  0.98820890  0.57800429    -0.07600
C1535       C  0.60753448  0.00989179  0.57440295     0.05900
C1536       C  0.63235804  0.00255029  0.56469360    -0.02700
Br1537     Br  0.66209312  0.03112644  0.55878698    -0.02400
H1538       H  0.65404180  0.96912926  0.55065913     0.09800
H1539       H  0.56720152  0.99358187  0.58560604     0.07800
Br1540     Br  0.55861825  0.93173413  0.57807068    -0.02800
C1541       C  0.67364945  0.77339309  0.52748323    -0.09400
C1542       C  0.66531322  0.78726097  0.54185316     0.06800
C1543       C  0.66276821  0.76968449  0.55585251    -0.03200
C1544       C  0.66297341  0.73880126  0.55465905    -0.07600
C1545       C  0.66642794  0.72492337  0.53973964     0.05900
C1546       C  0.67427216  0.74263110  0.52627422    -0.02700
Br1547     Br  0.68238791  0.72715579  0.50530584    -0.02400
H1548       H  0.67696227  0.78640138  0.51665940     0.09800
H1549       H  0.65838547  0.72567619  0.56531896     0.07800
Br1550     Br  0.65793984  0.78626706  0.57677928    -0.02800
C1551       C  0.51285069  0.82309824  0.52620164    -0.09400
C1552       C  0.52696000  0.83340021  0.53993448     0.06800
C1553       C  0.50927077  0.83931568  0.55371473    -0.03200
C1554       C  0.47830904  0.83984236  0.55259396    -0.07600
C1555       C  0.46438752  0.83392954  0.53808617     0.05900
C1556       C  0.48182500  0.82291911  0.52523247    -0.02700
Br1557     Br  0.46513223  0.80823377  0.50587198    -0.02400
H1558       H  0.52595862  0.81682632  0.51576421     0.09800
H1559       H  0.46523408  0.84686022  0.56289835     0.07800
Br1560     Br  0.52523284  0.84884660  0.57418649    -0.02800
C1561       C  0.84913600  0.12829252  0.77400766    -0.09400
C1562       C  0.86903392  0.14740246  0.76591518     0.06800
C1563       C  0.88213952  0.17059795  0.77458825    -0.03200
C1564       C  0.87396638  0.17503367  0.79064787    -0.07600
C1565       C  0.85242491  0.15729587  0.79828566     0.05900
C1566       C  0.84098312  0.13294550  0.79004225    -0.02700
Br1567     Br  0.81499020  0.10476191  0.80021168    -0.02400
H1568       H  0.83942138  0.10990291  0.76777011     0.09800
H1569       H  0.88476315  0.19226318  0.79726978     0.07800
Br1570     Br  0.91232870  0.19621572  0.76562181    -0.02800
C1571       C  0.80093390  0.13124336  0.67268014    -0.09400
C1572       C  0.80056892  0.13040374  0.68956014     0.06800
C1573       C  0.77297002  0.13456156  0.69769958    -0.03200
C1574       C  0.74724670  0.14007054  0.68905573    -0.07600
C1575       C  0.74781700  0.14225144  0.67229084     0.05900
C1576       C  0.77502404  0.13730899  0.66405491    -0.02700
Br1577     Br  0.77880804  0.14128718  0.64124760    -0.02400
H1578       H  0.82175869  0.12852909  0.66611220     0.09800
H1579       H  0.72654705  0.14315313  0.69565866     0.07800
Br1580     Br  0.76801366  0.13417565  0.72060159    -0.02800
C1581       C  0.14877302  0.17776725  0.77454251    -0.09400
C1582       C  0.14205008  0.14895879  0.76948406     0.06800
C1583       C  0.14391775  0.12560758  0.78076501    -0.03200
C1584       C  0.15335538  0.13127043  0.79628957    -0.07600
C1585       C  0.16114684  0.15984496  0.80111329     0.05900
C1586       C  0.15793264  0.18336488  0.79015478    -0.02700
Br1587     Br  0.16284063  0.22379272  0.79612950    -0.02400
H1588       H  0.14662805  0.19627537  0.76635268     0.09800
H1589       H  0.15507786  0.11293495  0.80462861     0.07800
Br1590     Br  0.13329171  0.08551050  0.77626634    -0.02800
C1591       C  0.22260503  0.12905491  0.70405872    -0.09400
C1592       C  0.19766942  0.12951088  0.69430683     0.06800
C1593       C  0.20201000  0.13305623  0.67763465    -0.03200
C1594       C  0.23088387  0.13685899  0.67116956    -0.07600
C1595       C  0.25589043  0.13768484  0.68104811     0.05900
C1596       C  0.25131328  0.13330589  0.69770929    -0.02700
Br1597     Br  0.28253074  0.13167607  0.71286607    -0.02400
H1598       H  0.21967026  0.12640466  0.71688893     0.09800
H1599       H  0.23373279  0.13982387  0.65836092     0.07800
Br1600     Br  0.16949610  0.13189213  0.66311373    -0.02800
C1601       C  0.01845556  0.09658452  0.69511632    -0.09400
C1602       C  0.03110662  0.08934283  0.70987818     0.06800
C1603       C  0.01263099  0.07646111  0.72188827    -0.03200
C1604       C  0.98160410  0.07687340  0.72023962    -0.07600
C1605       C  0.96877805  0.08934620  0.70655282     0.05900
C1606       C  0.98755321  0.09627325  0.69331412    -0.02700
Br1607     Br  0.97219177  0.10736401  0.67284210    -0.02400
H1608       H  0.03230064  0.10506075  0.68536631     0.09800
H1609       H  0.96759776  0.06995623  0.73027904     0.07800
Br1610     Br  0.02843490  0.05922430  0.74097401    -0.02800
C1611       C  0.15293311  0.35120304  0.77218793    -0.09400
C1612       C  0.14936222  0.37929386  0.76518987     0.06800
C1613       C  0.15443036  0.40440533  0.77466586    -0.03200
C1614       C  0.16320988  0.40091276  0.79059422    -0.07600
C1615       C  0.16695782  0.37275335  0.79751026     0.05900
C1616       C  0.16143350  0.34773448  0.78808838    -0.02700
Br1617     Br  0.16255796  0.30813299  0.79631348    -0.02400
H1618       H  0.14876845  0.33156193  0.76528053     0.09800
H1619       H  0.16722916  0.42042609  0.79762521     0.07800
Br1620     Br  0.14835815  0.44400053  0.76704023    -0.02800
C1621       C  0.25161526  0.38765848  0.68079219    -0.09400
C1622       C  0.25380394  0.36344092  0.67050386     0.06800
C1623       C  0.22823761  0.34678488  0.66743504    -0.03200
C1624       C  0.20137578  0.35337379  0.67540143    -0.07600
C1625       C  0.19931812  0.37678089  0.68635899     0.05900
C1626       C  0.22471373  0.39447063  0.68871738    -0.02700
Br1627     Br  0.22502761  0.42639777  0.70362331    -0.02400
H1628       H  0.27121265  0.40081388  0.68303968     0.09800
H1629       H  0.18208798  0.33973289  0.67322846     0.07800
Br1630     Br  0.22907470  0.31481786  0.65256150    -0.02800
C1631       C  0.07009219  0.27692250  0.72185442    -0.09400
C1632       C  0.08686886  0.29124433  0.70975061     0.06800
C1633       C  0.10045590  0.27417488  0.69760071    -0.03200
C1634       C  0.09924808  0.24346796  0.69859141    -0.07600
C1635       C  0.08510415  0.22901894  0.71159451     0.05900
C1636       C  0.06888675  0.24610050  0.72284436    -0.02700
Br1637     Br  0.04586459  0.22939188  0.74029315    -0.02400
H1638       H  0.05901780  0.28977349  0.73107745     0.09800
H1639       H  0.11139925  0.23089221  0.68964720     0.07800
Br1640     Br  0.12462701  0.29060814  0.68049572    -0.02800
C1641       C  0.85700174  0.40494308  0.77552448    -0.09400
C1642       C  0.87114061  0.38084414  0.76803499     0.06800
C1643       C  0.87771666  0.35555600  0.77749906    -0.03200
C1644       C  0.86877349  0.35441457  0.79363688    -0.07600
C1645       C  0.85352773  0.37794942  0.80074561     0.05900
C1646       C  0.84840116  0.40372945  0.79170834    -0.02700
Br1647     Br  0.82853070  0.43737742  0.80075431    -0.02400
H1648       H  0.85202506  0.42471702  0.76870693     0.09800
H1649       H  0.87360364  0.33488146  0.80066233     0.07800
Br1650     Br  0.89785382  0.32114519  0.76944877    -0.02800
C1651       C  0.81004127  0.37921188  0.67113452    -0.09400
C1652       C  0.80768453  0.39103924  0.68665599     0.06800
C1653       C  0.77891014  0.39668376  0.69309581    -0.03200
C1654       C  0.75364937  0.38846175  0.68463641    -0.07600
C1655       C  0.75612577  0.37533317  0.66954388     0.05900
C1656       C  0.78460594  0.37158129  0.66256324    -0.02700
Br1657     Br  0.78986728  0.35440706  0.64183258    -0.02400
H1658       H  0.83176438  0.37460870  0.66588485     0.09800
H1659       H  0.73182717  0.39223268  0.68995184     0.07800
Br1660     Br  0.77223428  0.41594612  0.71322208    -0.02800
C1661       C  0.98541591  0.43888880  0.72000787    -0.09400
C1662       C  0.97157558  0.42758729  0.70644128     0.06800
C1663       C  0.98945964  0.42098643  0.69286537    -0.03200
C1664       C  0.02048929  0.42163378  0.69387077    -0.07600
C1665       C  0.03435631  0.42808800  0.70834702     0.05900
C1666       C  0.01653686  0.43904479  0.72112535    -0.02700
Br1667     Br  0.03278616  0.45215645  0.74092204    -0.02400
H1668       H  0.97209411  0.44481122  0.73043237     0.09800
H1669       H  0.03362989  0.41414294  0.68369369     0.07800
Br1670     Br  0.97309333  0.40827871  0.67302377    -0.02800
C1671       C  0.92469012  0.27558667  0.71232076    -0.09400
C1672       C  0.90089275  0.29065702  0.70531919     0.06800
C1673       C  0.88088440  0.27485310  0.69579600    -0.03200
C1674       C  0.88281363  0.24415622  0.69513795    -0.07600
C1675       C  0.90453069  0.22876755  0.70372370     0.05900
C1676       C  0.92682085  0.24489042  0.71150127    -0.02700
Br1677     Br  0.96052259  0.22660486  0.72135413    -0.02400
H1678       H  0.94100516  0.28754392  0.71909898     0.09800
H1679       H  0.86612234  0.23223881  0.68860277     0.07800
Br1680     Br  0.85040264  0.29354553  0.68342686    -0.02800
C1681       C  0.65583355  0.67266644  0.29171774    -0.09400
C1682       C  0.66271039  0.64681466  0.30013371     0.06800
C1683       C  0.66071421  0.61940533  0.29232637    -0.03200
C1684       C  0.65122654  0.61829982  0.27645715    -0.07600
C1685       C  0.64355516  0.64417961  0.26811187     0.05900
C1686       C  0.64630244  0.67168013  0.27592050    -0.02700
Br1687     Br  0.63916535  0.70912986  0.26565878    -0.02400
H1688       H  0.65783566  0.69386642  0.29750883     0.09800
H1689       H  0.64978810  0.59709491  0.27063984     0.07800
Br1690     Br  0.67254100  0.58307632  0.30236140    -0.02800
C1691       C  0.66142829  0.76973195  0.33701518    -0.09400
C1692       C  0.68870309  0.78471319  0.33518661     0.06800
C1693       C  0.71480063  0.76804252  0.33240935    -0.03200
C1694       C  0.71335822  0.73707879  0.33188128    -0.07600
C1695       C  0.68618603  0.72215578  0.33409664     0.05900
C1696       C  0.65992322  0.73887312  0.33626021    -0.02700
Br1697     Br  0.62123830  0.72084975  0.33728756    -0.02400
H1698       H  0.64106446  0.78220081  0.33880642     0.09800
H1699       H  0.73370996  0.72453631  0.33022470     0.07800
Br1700     Br  0.75325913  0.78609475  0.33052754    -0.02800
C1701       C  0.64774643  0.84874130  0.27711857    -0.09400
C1702       C  0.64673098  0.87795445  0.27127641     0.06800
C1703       C  0.65456559  0.90099744  0.28173604    -0.03200
C1704       C  0.66261324  0.89440084  0.29753711    -0.07600
C1705       C  0.66356523  0.86514310  0.30324836     0.05900
C1706       C  0.65612632  0.84221353  0.29277146    -0.02700
Br1707     Br  0.65527279  0.80148420  0.29914778    -0.02400
H1708       H  0.64185468  0.83057093  0.26946470     0.09800
H1709       H  0.66872170  0.91225828  0.30535701     0.07800
Br1710     Br  0.65482794  0.94188078  0.27549893    -0.02800
C1711       C  0.65987990  0.61664044  0.38959763    -0.09400
C1712       C  0.63523436  0.59749997  0.38849809     0.06800
C1713       C  0.62737574  0.58845160  0.37295597    -0.03200
C1714       C  0.64075409  0.60158284  0.35936881    -0.07600
C1715       C  0.66312547  0.62330654  0.36051901     0.05900
C1716       C  0.67378059  0.62919895  0.37601122    -0.02700
Br1717     Br  0.70759919  0.65408709  0.37976165    -0.02400
H1718       H  0.66928785  0.62178999  0.40098468     0.09800
H1719       H  0.63349156  0.59385899  0.34796639     0.07800
Br1720     Br  0.59885660  0.55773726  0.36910513    -0.02800
C1721       C  0.59360259  0.62483048  0.45477323    -0.09400
C1722       C  0.61311045  0.60383312  0.44840453     0.06800
C1723       C  0.63744865  0.59437162  0.45748226    -0.03200
C1724       C  0.63970036  0.60315137  0.47342981    -0.07600
C1725       C  0.61853481  0.62226006  0.48040069     0.05900
C1726       C  0.59591464  0.63406351  0.47061044    -0.02700
Br1727     Br  0.56786228  0.66350926  0.47760631    -0.02400
H1728       H  0.57644562  0.63415407  0.44735004     0.09800
H1729       H  0.65778716  0.59452020  0.48046037     0.07800
Br1730     Br  0.66769197  0.56889041  0.44871437    -0.02800
C1731       C  0.48363393  0.58232694  0.42542481    -0.09400
C1732       C  0.47072698  0.57535388  0.41079641     0.06800
C1733       C  0.48981317  0.56827667  0.39776469    -0.03200
C1734       C  0.52079184  0.56908543  0.39950336    -0.07600
C1735       C  0.53390911  0.57676209  0.41406842     0.05900
C1736       C  0.51460434  0.58297282  0.42722956    -0.02700
Br1737     Br  0.52769558  0.59410959  0.44793092    -0.02400
H1738       H  0.46945860  0.58806741  0.43555654     0.09800
H1739       H  0.53478830  0.56324665  0.38932495     0.07800
Br1740     Br  0.47548262  0.55551929  0.37751990    -0.02800
C1741       C  0.38230859  0.58204026  0.45666057    -0.09400
C1742       C  0.39656682  0.60133552  0.44580496     0.06800
C1743       C  0.40796800  0.62816664  0.45141825    -0.03200
C1744       C  0.40412699  0.63564264  0.46759362    -0.07600
C1745       C  0.38892208  0.61673132  0.47847538     0.05900
C1746       C  0.37833470  0.58939570  0.47280152    -0.02700
Br1747     Br  0.35974206  0.56013515  0.48641969    -0.02400
H1748       H  0.37408044  0.56104883  0.45253844     0.09800
H1749       H  0.41307533  0.65640895  0.47165749     0.07800
Br1750     Br  0.43029470  0.65442550  0.43762040    -0.02800
C1751       C  0.42027154  0.91790861  0.46041332    -0.09400
C1752       C  0.39577248  0.92123660  0.45042672     0.06800
C1753       C  0.36688413  0.91711253  0.45715252    -0.03200
C1754       C  0.36327079  0.90867723  0.47327386    -0.07600
C1755       C  0.38786734  0.90457855  0.48321298     0.05900
C1756       C  0.41672824  0.90988518  0.47656972    -0.02700
Br1757     Br  0.45275980  0.90698921  0.48852374    -0.02400
H1758       H  0.44256370  0.92133381  0.45556556     0.09800
H1759       H  0.34092462  0.90536772  0.47805699     0.07800
Br1760     Br  0.33120511  0.92454480  0.44550233    -0.02800
C1761       C  0.65521370  0.92797117  0.37849740    -0.09400
C1762       C  0.63917726  0.91283636  0.39075462     0.06800
C1763       C  0.63409853  0.88227435  0.38840117    -0.03200
C1764       C  0.64673172  0.86762385  0.37518744    -0.07600
C1765       C  0.66422763  0.88236141  0.36337539     0.05900
C1766       C  0.66697940  0.91342986  0.36495474    -0.02700
Br1767     Br  0.68488016  0.93820789  0.34861536    -0.02400
H1768       H  0.65766440  0.95161934  0.37878210     0.09800
H1769       H  0.64117008  0.84465154  0.37406549     0.07800
Br1770     Br  0.60844060  0.85878944  0.40215484    -0.02800
C1771       C  0.52664710  0.91995011  0.41083492    -0.09400
C1772       C  0.54175060  0.94496358  0.41633372     0.06800
C1773       C  0.52420635  0.96850667  0.42237913    -0.03200
C1774       C  0.49282343  0.96672341  0.42237479    -0.07600
C1775       C  0.47777475  0.94215724  0.41619753     0.05900
C1776       C  0.49550704  0.91827131  0.41072716    -0.02700
Br1777     Br  0.47962912  0.88118748  0.40414639    -0.02400
H1778       H  0.53924291  0.90090515  0.40685549     0.09800
H1779       H  0.48023479  0.98513226  0.42694357     0.07800
Br1780     Br  0.54096913  0.00457966  0.42991784    -0.02800
C1781       C  0.64318694  0.91016390  0.45790194    -0.09400
C1782       C  0.61545884  0.91627149  0.45101498     0.06800
C1783       C  0.58954974  0.91209673  0.46058481    -0.03200
C1784       C  0.59167586  0.90337486  0.47660930    -0.07600
C1785       C  0.61929407  0.89829060  0.48374490     0.05900
C1786       C  0.64537342  0.90146851  0.47406587    -0.02700
Br1787     Br  0.68456542  0.89369836  0.48185411    -0.02400
H1788       H  0.66338712  0.91259862  0.45072943     0.09800
H1789       H  0.57125001  0.90043775  0.48354188     0.07800
Br1790     Br  0.55016123  0.91535985  0.45244207    -0.02800
C1791       C  0.36498819  0.60928849  0.35668664    -0.09400
C1792       C  0.34739786  0.63490974  0.35828741     0.06800
C1793       C  0.33963855  0.64351098  0.37412120    -0.03200
C1794       C  0.35297201  0.62985077  0.38734424    -0.07600
C1795       C  0.37277538  0.60583564  0.38562318     0.05900
C1796       C  0.37704251  0.59467524  0.36993949    -0.02700
Br1797     Br  0.39789402  0.55852824  0.36550235    -0.02400
H1798       H  0.36868648  0.59943631  0.34512046     0.09800
H1799       H  0.34649375  0.63782675  0.39898100     0.07800
Br1800     Br  0.30926976  0.67219715  0.37901447    -0.02800
C1801       C  0.38096928  0.66398322  0.27439910    -0.09400
C1802       C  0.36361996  0.64526401  0.26492613     0.06800
C1803       C  0.34072326  0.62851062  0.27255688    -0.03200
C1804       C  0.33441916  0.63246064  0.28886228    -0.07600
C1805       C  0.35005908  0.65306542  0.29782937     0.05900
C1806       C  0.37467228  0.66754454  0.29074841    -0.02700
Br1807     Br  0.40061271  0.69176165  0.30300801    -0.02400
H1808       H  0.39944889  0.67616018  0.26907071     0.09800
H1809       H  0.31698948  0.61940873  0.29458046     0.07800
Br1810     Br  0.31640125  0.60048216  0.26169454    -0.02800
C1811       C  0.36620389  0.87340253  0.37487201    -0.09400
C1812       C  0.34815374  0.88950123  0.36424063     0.06800
C1813       C  0.34671135  0.92049239  0.36654537    -0.03200
C1814       C  0.36144060  0.93387949  0.37925667    -0.07600
C1815       C  0.37861966  0.91762471  0.39022191     0.05900
C1816       C  0.38103342  0.88680404  0.38753575    -0.02700
Br1817     Br  0.40439553  0.86078505  0.40052741    -0.02400
H1818       H  0.37010309  0.85017401  0.37334780     0.09800
H1819       H  0.35955753  0.95747556  0.37998437     0.07800
Br1820     Br  0.32582436  0.94697520  0.35262616    -0.02800
C1821       C  0.32248093  0.78175600  0.32024868    -0.09400
C1822       C  0.31578145  0.79496543  0.33501162     0.06800
C1823       C  0.30712621  0.77627480  0.34790706    -0.03200
C1824       C  0.30855351  0.74550064  0.34629237    -0.07600
C1825       C  0.31799755  0.73220830  0.33189359     0.05900
C1826       C  0.32390396  0.75093589  0.31856077    -0.02700
Br1827     Br  0.33627957  0.73688529  0.29794197    -0.02400
H1828       H  0.32766436  0.79532782  0.30997958     0.09800
H1829       H  0.30224502  0.73178296  0.35648013     0.07800
Br1830     Br  0.29104922  0.79118288  0.36769999    -0.02800
C1831       C  0.35250514  0.91092064  0.28109979    -0.09400
C1832       C  0.35750547  0.88681327  0.27093553     0.06800
C1833       C  0.35573939  0.85796459  0.27749056    -0.03200
C1834       C  0.34994424  0.85392174  0.29379855    -0.07600
C1835       C  0.34466231  0.87774741  0.30395274     0.05900
C1836       C  0.34607035  0.90664198  0.29746032    -0.02700
Br1837     Br  0.33791877  0.94102221  0.30995690    -0.02400
H1838       H  0.35354743  0.93320507  0.27630976     0.09800
H1839       H  0.34945824  0.83181302  0.29854739     0.07800
Br1840     Br  0.35860521  0.82267487  0.26492279    -0.02800
C1841       C  0.15248737  0.62587317  0.21635567    -0.09400
C1842       C  0.14636180  0.65021930  0.22622648     0.06800
C1843       C  0.14736966  0.67887476  0.21916558    -0.03200
C1844       C  0.15397580  0.68232862  0.20279923    -0.07600
C1845       C  0.15986815  0.65799081  0.19302556     0.05900
C1846       C  0.15940776  0.62951220  0.20001232    -0.02700
Br1847     Br  0.17073349  0.59498304  0.18829477    -0.02400
H1848       H  0.15242990  0.60377577  0.22141242     0.09800
H1849       H  0.15483855  0.70437567  0.19765971     0.07800
Br1850     Br  0.14108491  0.71477436  0.23085694    -0.02800
C1851       C  0.20926117  0.63161421  0.32041847    -0.09400
C1852       C  0.20827980  0.63083024  0.30357819     0.06800
C1853       C  0.23456561  0.63794819  0.29480959    -0.03200
C1854       C  0.26027789  0.64618251  0.30276485    -0.07600
C1855       C  0.26159798  0.64690291  0.31953587     0.05900
C1856       C  0.23546086  0.63936108  0.32841329    -0.02700
Br1857     Br  0.23278173  0.64221878  0.35129277    -0.02400
H1858       H  0.18924787  0.62703575  0.32744157     0.09800
H1859       H  0.27930262  0.65256278  0.29550176     0.07800
Br1860     Br  0.23708614  0.63944328  0.27182540    -0.02800
C1861       C  0.85551965  0.62603555  0.21676813    -0.09400
C1862       C  0.86297778  0.64966169  0.22673383     0.06800
C1863       C  0.86252483  0.67867727  0.22017262    -0.03200
C1864       C  0.85395582  0.68330104  0.20436472    -0.07600
C1865       C  0.84586378  0.65988828  0.19459408     0.05900
C1866       C  0.84721658  0.63085244  0.20085526    -0.02700
Br1867     Br  0.83673680  0.59692072  0.18864076    -0.02400
H1868       H  0.85589735  0.60362386  0.22138762     0.09800
H1869       H  0.85374843  0.70552394  0.19965026     0.07800
Br1870     Br  0.87254011  0.71367244  0.23178352    -0.02800
C1871       C  0.80370463  0.63581955  0.32125543    -0.09400
C1872       C  0.80374400  0.62639020  0.30520160     0.06800
C1873       C  0.77595399  0.62332897  0.29765062    -0.03200
C1874       C  0.74955110  0.63035906  0.30593212    -0.07600
C1875       C  0.74975267  0.64039155  0.32172976     0.05900
C1876       C  0.77711886  0.64280359  0.32948763    -0.02700
Br1877     Br  0.77951404  0.65796986  0.35076599    -0.02400
H1878       H  0.82456100  0.63886586  0.32731070     0.09800
H1879       H  0.72859161  0.62832517  0.29985602     0.07800
Br1880     Br  0.77175267  0.61159216  0.27579971    -0.02800
C1881       C  0.98779521  0.60124549  0.29844551    -0.09400
C1882       C  0.97362329  0.59399376  0.28414558     0.06800
C1883       C  0.99159842  0.58378148  0.27121311    -0.03200
C1884       C  0.02279991  0.58506607  0.27207389    -0.07600
C1885       C  0.03674931  0.59621897  0.28564758     0.05900
C1886       C  0.01889129  0.60245636  0.29928977    -0.02700
Br1887     Br  0.03549817  0.61407331  0.31926606    -0.02400
H1888       H  0.97470004  0.60812700  0.30876769     0.09800
H1889       H  0.03608364  0.57945260  0.26158460     0.07800
Br1890     Br  0.97545111  0.56951019  0.25164226    -0.02800
C1891       C  0.88832621  0.87606006  0.21788326    -0.09400
C1892       C  0.87260458  0.89503673  0.22835306     0.06800
C1893       C  0.84954054  0.91264413  0.22198710    -0.03200
C1894       C  0.84109004  0.90887426  0.20606885    -0.07600
C1895       C  0.85457623  0.88739834  0.19639870     0.05900
C1896       C  0.87975650  0.87251412  0.20198911    -0.02700
Br1897     Br  0.90310417  0.84740582  0.18829263    -0.02400
H1898       H  0.90694673  0.86323582  0.22216656     0.09800
H1899       H  0.82261258  0.92157710  0.20148967     0.07800
Br1900     Br  0.82680547  0.94041390  0.23441167    -0.02800
C1901       C  0.80519102  0.87537159  0.32322008    -0.09400
C1902       C  0.80454236  0.88474715  0.30710679     0.06800
C1903       C  0.77661692  0.88707593  0.29970497    -0.03200
C1904       C  0.75054619  0.87899649  0.30808435    -0.07600
C1905       C  0.75125583  0.86871657  0.32395041     0.05900
C1906       C  0.77890955  0.86733630  0.33162878    -0.02700
Br1907     Br  0.78225211  0.85225117  0.35303777    -0.02400
H1908       H  0.82634824  0.87295727  0.32908981     0.09800
H1909       H  0.72944510  0.88082693  0.30210789     0.07800
Br1910     Br  0.77226246  0.90188867  0.27828392    -0.02800
C1911       C  0.88738180  0.77505709  0.29582712    -0.09400
C1912       C  0.90275641  0.79006339  0.28341726     0.06800
C1913       C  0.91930682  0.77353054  0.27206108    -0.03200
C1914       C  0.91908128  0.74276063  0.27297719    -0.07600
C1915       C  0.90210991  0.72787348  0.28475878     0.05900
C1916       C  0.88670243  0.74430350  0.29652665    -0.02700
Br1917     Br  0.86412009  0.72638062  0.31380549    -0.02400
H1918       H  0.87480912  0.78724632  0.30476752     0.09800
H1919       H  0.93099478  0.73039267  0.26385112     0.07800
Br1920     Br  0.94199693  0.79084045  0.25464778    -0.02800
C1921       C  0.12776378  0.87207764  0.22023418    -0.09400
C1922       C  0.14967031  0.88072928  0.23104392     0.06800
C1923       C  0.17911981  0.88478643  0.22529315    -0.03200
C1924       C  0.18601181  0.88030893  0.20910877    -0.07600
C1925       C  0.16389627  0.87316443  0.19815996     0.05900
C1926       C  0.13455997  0.86846512  0.20392734    -0.02700
Br1927     Br  0.10355024  0.85469308  0.19039252    -0.02400
H1928       H  0.10518118  0.86806331  0.22449585     0.09800
H1929       H  0.20886793  0.88288634  0.20504202     0.07800
Br1930     Br  0.21130671  0.89498071  0.23895556    -0.02800
C1931       C  0.20422148  0.88068352  0.32748390    -0.09400
C1932       C  0.20445296  0.89310348  0.31193955     0.06800
C1933       C  0.23222220  0.90059390  0.30474483    -0.03200
C1934       C  0.25862769  0.89441302  0.31273007    -0.07600
C1935       C  0.25833668  0.88087724  0.32788470     0.05900
C1936       C  0.23081362  0.87466260  0.33546616    -0.02700
Br1937     Br  0.22855107  0.85542070  0.35597434    -0.02400
H1938       H  0.18328292  0.87447004  0.33321391     0.09800
H1939       H  0.27969920  0.89920918  0.30675197     0.07800
Br1940     Br  0.23635902  0.91611331  0.28336765    -0.02800
C1941       C  0.09030265  0.77739097  0.27932611    -0.09400
C1942       C  0.11174307  0.79108299  0.28862412     0.06800
C1943       C  0.13086199  0.77386488  0.29798995    -0.03200
C1944       C  0.12947388  0.74321824  0.29717044    -0.07600
C1945       C  0.10977778  0.72928207  0.28677238     0.05900
C1946       C  0.08934851  0.74671766  0.27811949    -0.02700
Br1947     Br  0.06065723  0.73092111  0.26373667    -0.02400
H1948       H  0.07548451  0.79067079  0.27214068     0.09800
H1949       H  0.14501294  0.73036208  0.30412028     0.07800
Br1950     Br  0.15962761  0.79105028  0.31184882    -0.02800
C1951       C  0.99139474  0.93782405  0.27906515    -0.09400
C1952       C  0.97601457  0.92292615  0.29150972     0.06800
C1953       C  0.99231761  0.91294239  0.30477262    -0.03200
C1954       C  0.02348065  0.91394536  0.30429892    -0.07600
C1955       C  0.03911096  0.92500086  0.29079695     0.05900
C1956       C  0.02265768  0.93914140  0.27866066    -0.02700
Br1957     Br  0.04135682  0.95956719  0.26092568    -0.02400
H1958       H  0.97927005  0.94652209  0.26898968     0.09800
H1959       H  0.03545814  0.90397983  0.31408597     0.07800
Br1960     Br  0.97333715  0.89668047  0.32364650    -0.02800
C1961       C  0.60916819  0.37678661  0.52693695    -0.09400
C1962       C  0.62305571  0.39664551  0.51610433     0.06800
C1963       C  0.63114775  0.42492120  0.52155354    -0.03200
C1964       C  0.62546078  0.43263909  0.53749652    -0.07600
C1965       C  0.61181561  0.41268979  0.54822836     0.05900
C1966       C  0.60352477  0.38460417  0.54287312    -0.02700
Br1967     Br  0.58266694  0.35709983  0.55661755    -0.02400
H1968       H  0.60232279  0.35518204  0.52294719     0.09800
H1969       H  0.63151209  0.45446463  0.54152908     0.07800
Br1970     Br  0.64761712  0.45492254  0.50764226    -0.02800
C1971       C  0.62254978  0.47886006  0.45017381    -0.09400
C1972       C  0.63088123  0.45613370  0.43981268     0.06800
C1973       C  0.63000390  0.46160855  0.42320176    -0.03200
C1974       C  0.62194643  0.48974641  0.41744529    -0.07600
C1975       C  0.61375667  0.51292764  0.42787359     0.05900
C1976       C  0.61333108  0.50646189  0.44459800    -0.02700
Br1977     Br  0.60050395  0.53209953  0.46152586    -0.02400
H1978       H  0.62196286  0.47470289  0.46296639     0.09800
H1979       H  0.62179039  0.49331680  0.40462930     0.07800
Br1980     Br  0.64024282  0.43195780  0.40780955    -0.02800
C1981       C  0.38186684  0.43179684  0.51843567    -0.09400
C1982       C  0.37931048  0.40168979  0.51517037     0.06800
C1983       C  0.38055410  0.38118201  0.52792032    -0.03200
C1984       C  0.38484962  0.39109313  0.54351189    -0.07600
C1985       C  0.38803488  0.42133276  0.54683499     0.05900
C1986       C  0.38632942  0.44177349  0.53396569    -0.02700
Br1987     Br  0.38840720  0.48365670  0.53615288    -0.02400
H1988       H  0.38102218  0.44777668  0.50872672     0.09800
H1989       H  0.38601643  0.37491680  0.55309883     0.07800
Br1990     Br  0.37510339  0.33956552  0.52495657    -0.02800
C1991       C  0.40052262  0.46406232  0.42512055    -0.09400
C1992       C  0.37676725  0.45939636  0.43611586     0.06800
C1993       C  0.35680749  0.48302636  0.43904868    -0.03200
C1994       C  0.36161401  0.51056885  0.43152594    -0.07600
C1995       C  0.38622217  0.51530655  0.42121843     0.05900
C1996       C  0.40536556  0.49160137  0.41779000    -0.02700
Br1997     Br  0.43873873  0.49593920  0.40332899    -0.02400
H1998       H  0.41603636  0.44636159  0.42250236     0.09800
H1999       H  0.34673715  0.52874188  0.43424915     0.07800
Br2000     Br  0.32424568  0.48025482  0.45417991    -0.02800
C2001       C  0.48931133  0.36460392  0.44735631    -0.09400
C2002       C  0.47373259  0.35686217  0.46147500     0.06800
C2003       C  0.48954493  0.34605964  0.47470064    -0.03200
C2004       C  0.52055766  0.34578317  0.47410523    -0.07600
C2005       C  0.53621119  0.35605182  0.46049465     0.05900
C2006       C  0.52037247  0.36426340  0.44675045    -0.02700
Br2007     Br  0.53969346  0.37493433  0.42682501    -0.02400
H2008       H  0.47736750  0.37222608  0.43696883     0.09800
H2009       H  0.53245661  0.33872920  0.48462154     0.07800
Br2010     Br  0.47026215  0.33114557  0.49383739    -0.02800
C2011       C  0.58766917  0.10989268  0.52321362    -0.09400
C2012       C  0.61669342  0.11156322  0.51662538     0.06800
C2013       C  0.64092164  0.10665865  0.52691809    -0.03200
C2014       C  0.63559978  0.10020062  0.54320002    -0.07600
C2015       C  0.60650576  0.09794536  0.54959514     0.05900
C2016       C  0.58244226  0.10334578  0.53939879    -0.02700
Br2017     Br  0.54187067  0.10462024  0.54692127    -0.02400
H2018       H  0.56864209  0.11413586  0.51577089     0.09800
H2019       H  0.65438810  0.09639002  0.55087111     0.07800
Br2020     Br  0.68180328  0.10858458  0.51983683    -0.02800
C2021       C  0.65070286  0.03934498  0.44368513    -0.09400
C2022       C  0.63353362  0.06280860  0.43781317     0.06800
C2023       C  0.61493118  0.05769538  0.42465698    -0.03200
C2024       C  0.61177917  0.02908231  0.41869141    -0.07600
C2025       C  0.62679725  0.00525550  0.42562041     0.05900
C2026       C  0.64742150  0.01074809  0.43770812    -0.02700
Br2027     Br  0.67105140  0.97987927  0.44672476    -0.02400
H2028       H  0.66548008  0.04286376  0.45357297     0.09800
H2029       H  0.59679236  0.02525481  0.40892790     0.07800
Br2030     Br  0.59337567  0.08880220  0.41426253    -0.02800
C2031       C  0.68125375  0.27429961  0.47306185    -0.09400
C2032       C  0.67516268  0.28883694  0.45858760     0.06800
C2033       C  0.67232688  0.27179191  0.44468329    -0.03200
C2034       C  0.67072842  0.24097822  0.44589879    -0.07600
C2035       C  0.67222133  0.22654822  0.46082994     0.05900
C2036       C  0.68000835  0.24344848  0.47430569    -0.02700
Br2037     Br  0.68704392  0.22656339  0.49507160    -0.02400
H2038       H  0.68433010  0.28697799  0.48382917     0.09800
H2039       H  0.66613477  0.22851009  0.43523596     0.07800
Br2040     Br  0.66912326  0.28947674  0.42384704    -0.02800
C2041       C  0.40627884  0.11801201  0.52862997    -0.09400
C2042       C  0.38037557  0.11159283  0.52011097     0.06800
C2043       C  0.35749989  0.09512933  0.52793110    -0.03200
C2044       C  0.36099142  0.08587412  0.54386173    -0.07600
C2045       C  0.38716684  0.09207775  0.55209029     0.05900
C2046       C  0.40984967  0.10833442  0.54433463    -0.02700
Br2047     Br  0.44586403  0.11898620  0.55467898    -0.02400
H2048       H  0.42423623  0.13056459  0.52303559     0.09800
H2049       H  0.34329182  0.07351051  0.54982291     0.07800
Br2050     Br  0.32105233  0.08453816  0.51785111    -0.02800
C2051       C  0.36545460  0.04648804  0.43740903    -0.09400
C2052       C  0.39044964  0.06312189  0.44170279     0.06800
C2053       C  0.41909504  0.05244341  0.43719165    -0.03200
C2054       C  0.42203969  0.02530445  0.42952984    -0.07600
C2055       C  0.39732460  0.00799930  0.42601593     0.05900
C2056       C  0.36858419  0.01927751  0.42961371    -0.02700
Br2057     Br  0.33266531  0.99819306  0.42518890    -0.02400
H2058       H  0.34329430  0.05426015  0.44050224     0.09800
H2059       H  0.44403731  0.01762541  0.42631235     0.07800
Br2060     Br  0.45580103  0.07291433  0.44096443    -0.02800
C2061       C  0.34598720  0.24122476  0.44814805    -0.09400
C2062       C  0.33930718  0.22804269  0.46307993     0.06800
C2063       C  0.32977854  0.24648171  0.47577622    -0.03200
C2064       C  0.33006347  0.27726871  0.47372757    -0.07600
C2065       C  0.34036393  0.29039213  0.45935209     0.05900
C2066       C  0.34701247  0.27192650  0.44624496    -0.02700
Br2067     Br  0.35969817  0.28693462  0.42566338    -0.02400
H2068       H  0.35294727  0.22769628  0.43813628     0.09800
H2069       H  0.32463350  0.29098055  0.48392429     0.07800
Br2070     Br  0.31828424  0.23164377  0.49660269    -0.02800
C2071       C  0.52023153  0.18727449  0.47371071    -0.09400
C2072       C  0.53451418  0.17518483  0.46015905     0.06800
C2073       C  0.51705505  0.16769422  0.44687233    -0.03200
C2074       C  0.48600181  0.16854502  0.44829806    -0.07600
C2075       C  0.47198846  0.17658396  0.46273581     0.05900
C2076       C  0.48926134  0.18791505  0.47511592    -0.02700
Br2077     Br  0.47187372  0.20331456  0.49448026    -0.02400
H2078       H  0.53308677  0.19439863  0.48379858     0.09800
H2079       H  0.47285356  0.16047271  0.43852751     0.07800
Br2080     Br  0.53338970  0.15396488  0.42688032    -0.02800
loop_ 
_geom_bond_atom_site_label_1 
_geom_bond_atom_site_label_2 
_geom_bond_distance 
_geom_bond_site_symmetry_2 
_ccdc_geom_bond_type 
O1            C4   1.264       .  A
O1           Cd6   2.404       .  S
C2           O11   1.264       .  A
C2            O7   1.265       .  A
C2         C2075   1.470       .  S
O3            C9   1.271       .  A
O3           Cd6   2.537       .  S
C4           O12   1.270       .  A
C4         C2042   1.488       .  S
C5           O10   1.265       .  A
C5            O8   1.262       .  A
C5         C2062   1.490       .  S
Cd6          O13   2.417       .  S
Cd6          O12   2.509       .  S
Cd6          O11   2.427       .  S
Cd6           O7   2.465       .  S
Cd6          O10   2.475       .  S
Cd6           O8   2.473       .  S
C9           O13   1.258       .  A
C9         C2052   1.493       .  S
O14          C17   1.264       .  A
O14         Cd19   2.466       .  S
C15          O24   1.267       .  A
C15          O20   1.264       .  A
C15        C2012   1.494       .  S
O16          C22   1.269       .  A
O16         Cd19   2.522       .  S
C17          O25   1.265       .  A
C17        C2072   1.482       .  S
C18          O23   1.265       .  A
C18          O21   1.260       .  A
C18        C2035   1.490       .  S
Cd19         O26   2.443       .  S
Cd19         O25   2.439       .  S
Cd19         O24   2.508       .  S
Cd19         O20   2.452       .  S
Cd19         O23   2.497       .  S
Cd19         O21   2.464       .  S
C22          O26   1.260       .  A
C22        C2022   1.484       .  S
O27          C30   1.263       .  A
O27         Cd32   2.449       .  S
C28          O37   1.266       .  A
C28          O33   1.263       .  A
C28        C2002   1.467       .  S
O29          C35   1.260       .  A
O29         Cd32   2.453       .  S
C30          O38   1.269       .  A
C30        C1982   1.476       .  S
C31          O36   1.261       .  A
C31          O34   1.269       .  A
C31        C1992   1.494       .  S
Cd32         O39   2.510       .  S
Cd32         O38   2.475       .  S
Cd32         O37   2.450       .  S
Cd32         O33   2.416       .  S
Cd32         O36   2.449       .  S
Cd32         O34   2.542       .  S
C35          O39   1.265       .  A
C35        C2065   1.487       .  S
O40          C43   1.265       .  A
O40         Cd45   2.455       .  S
C41          O50   1.264       .  A
C41          O46   1.262       .  A
C41        C2005   1.468       .  S
O42          C48   1.265       .  A
O42         Cd45   2.500       .  S
C43          O51   1.268       .  A
C43        C1962   1.483       .  S
C44          O49   1.261       .  A
C44          O47   1.265       .  A
C44        C2032   1.483       .  S
Cd45         O52   2.454       .  S
Cd45         O51   2.486       .  S
Cd45         O50   2.447       .  S
Cd45         O46   2.432       .  S
Cd45         O49   2.456       .  S
Cd45         O47   2.499       .  S
C48          O52   1.267       .  A
C48        C1972   1.488       .  S
O53          C56   1.269       .  A
O53         Cd58   2.498       .  S
C54          O63   1.262       .  A
C54          O59   1.264       .  A
C54        C1942   1.460       .  S
O55          C61   1.263       .  A
O55         Cd58   2.460       .  S
C56          O64   1.263       .  A
C56        C1922   1.483       .  S
C57          O62   1.263       .  A
C57          O60   1.265       .  A
C57        C1955   1.492       .  S
Cd58         O65   2.503       .  S
Cd58         O64   2.457       .  S
Cd58         O63   2.414       .  S
Cd58         O59   2.455       .  S
Cd58         O62   2.480       .  S
Cd58         O60   2.488       .  S
C61          O65   1.269       .  A
C61        C1932   1.491       .  S
O66          C69   1.262       .  A
O66         Cd71   2.443       .  S
C67          O76   1.271       .  A
C67          O72   1.265       .  A
C67        C1892   1.494       .  S
O68          C74   1.268       .  A
O68         Cd71   2.533       .  S
C69          O77   1.264       .  A
C69        C1912   1.477       .  S
C70          O75   1.268       .  A
C70          O73   1.261       .  A
C70        C1952   1.488       .  S
Cd71         O78   2.467       .  S
Cd71         O77   2.445       .  S
Cd71         O76   2.509       .  S
Cd71         O72   2.447       .  S
Cd71         O75   2.534       .  S
Cd71         O73   2.452       .  S
C74          O78   1.263       .  A
C74        C1902   1.492       .  S
O79          C82   1.260       .  A
O79         Cd84   2.427       .  S
C80          O89   1.261       .  A
C80          O85   1.265       .  A
C80        C1915   1.470       .  S
O81          C87   1.264       .  A
O81         Cd84   2.468       .  S
C82          O90   1.271       .  A
C82        C1862   1.493       .  S
C83          O88   1.263       .  A
C83          O86   1.265       .  A
C83        C1882   1.497       .  S
Cd84         O91   2.497       .  S
Cd84         O90   2.520       .  S
Cd84         O89   2.427       .  S
Cd84         O85   2.460       .  S
Cd84         O88   2.499       .  S
Cd84         O86   2.490       .  S
C87          O91   1.268       .  A
C87        C1872   1.495       .  S
O92          C95   1.262       .  A
O92         Cd97   2.458       .  S
C93         O102   1.265       .  A
C93          O98   1.263       .  A
C93        C1945   1.474       .  S
O94         C100   1.267       .  A
O94         Cd97   2.536       .  S
C95         O103   1.271       .  A
C95        C1842   1.498       .  S
C96         O101   1.264       .  A
C96          O99   1.265       .  A
C96        C1852   1.496       .  S
Cd97        O104   2.456       .  S
Cd97        O103   2.521       .  S
Cd97        O102   2.431       .  S
Cd97         O98   2.425       .  S
Cd97        O101   2.510       .  S
Cd97         O99   2.482       .  S
C100        O104   1.260       .  A
C100       C1885   1.490       .  S
C105        C106   1.542       .  S
C105        C111   1.552       .  S
C105        C109   1.551       .  S
C105       C1812   1.555       .  S
C106        H113   1.086       .  S
C106        C107   1.365       .  D
C107        C108   1.539       .  S
C107       C1835   1.488       .  S
C108        C112   1.542       .  S
C108        C110   1.534       .  S
C108        H114   1.111       .  S
C109        H115   1.085       .  S
C109        C110   1.370       .  D
C110       C1935   1.486       .  S
C111        H116   1.079       .  S
C111        C112   1.369       .  D
C112       C1822   1.505       .  S
C117        C118   1.540       .  S
C117        C123   1.548       .  S
C117        C121   1.543       .  S
C117       C1792   1.549       .  S
C118        H125   1.085       .  S
C118        C119   1.368       .  D
C119        C120   1.546       .  S
C119       C1825   1.507       .  S
C120        C124   1.544       .  S
C120        C122   1.546       .  S
C120        H126   1.106       .  S
C121        H127   1.084       .  S
C121        C122   1.372       .  D
C122       C1855   1.508       .  S
C123        H128   1.083       .  S
C123        C124   1.363       .  D
C124       C1805   1.482       .  S
C129        C130   1.538       .  S
C129        C135   1.549       .  S
C129        C133   1.547       .  S
C129       C1762   1.553       .  S
C130        H137   1.086       .  S
C130        C131   1.370       .  D
C131        C132   1.550       .  S
C131       C1772   1.513       .  S
C132        C136   1.544       .  S
C132        C134   1.545       .  S
C132        H138   1.107       .  S
C133        H139   1.083       .  S
C133        C134   1.365       .  D
C134       C2025   1.483   1_565  S
C135        H140   1.086       .  S
C135        C136   1.370       .  D
C136       C1782   1.502       .  S
C141        C142   1.544       .  S
C141        C147   1.541       .  S
C141        C145   1.552       .  S
C141       C1815   1.555       .  S
C142        H149   1.085       .  S
C142        C143   1.369       .  D
C143        C144   1.541       .  S
C143       C1752   1.496       .  S
C144        C148   1.553       .  S
C144        C146   1.542       .  S
C144        H150   1.110       .  S
C145        H151   1.079       .  S
C145        C146   1.366       .  D
C146       C2055   1.493   1_565  S
C147        H152   1.084       .  S
C147        C148   1.372       .  D
C148       C1775   1.516       .  S
C153        C154   1.545       .  S
C153        C159   1.555       .  S
C153        C157   1.544       .  S
C153       C1795   1.551       .  S
C154        H161   1.085       .  S
C154        C155   1.369       .  D
C155        C156   1.543       .  S
C155       C1732   1.497       .  S
C156        C160   1.534       .  S
C156        C158   1.535       .  S
C156        H162   1.111       .  S
C157        H163   1.086       .  S
C157        C158   1.364       .  D
C158       C1995   1.485       .  S
C159        H164   1.081       .  S
C159        C160   1.368       .  D
C160       C1742   1.485       .  S
C165        C166   1.543       .  S
C165        C171   1.538       .  S
C165        C169   1.542       .  S
C165       C1712   1.545       .  S
C166        H173   1.082       .  S
C166        C167   1.359       .  D
C167        C168   1.545       .  S
C167       C1722   1.477       .  S
C168        C172   1.547       .  S
C168        C170   1.547       .  S
C168        H174   1.097       .  S
C169        H175   1.085       .  S
C169        C170   1.377       .  D
C170       C1975   1.515       .  S
C171        H176   1.086       .  S
C171        C172   1.367       .  D
C172       C1735   1.508       .  S
C177        C178   1.550       .  S
C177        C183   1.545       .  S
C177        C181   1.548       .  S
C177       C1765   1.556       .  S
C178        H185   1.081       .  S
C178        C179   1.365       .  D
C179        C180   1.541       .  S
C179       C1692   1.494       .  S
C180        C184   1.537       .  S
C180        C182   1.540       .  S
C180        H186   1.111       .  S
C181        H187   1.085       .  S
C181        C182   1.370       .  D
C182       C1905   1.492       .  S
C183        H188   1.086       .  S
C183        C184   1.370       .  D
C184       C1705   1.492       .  S
C189        C190   1.552       .  S
C189        C195   1.540       .  S
C189        C193   1.543       .  S
C189       C1715   1.545       .  S
C190        H197   1.081       .  S
C190        C191   1.366       .  D
C191        C192   1.533       .  S
C191       C1682   1.483       .  S
C192        C196   1.540       .  S
C192        C194   1.537       .  S
C192        H198   1.111       .  S
C193        H199   1.086       .  S
C193        C194   1.367       .  D
C194       C1875   1.485       .  S
C195        H200   1.086       .  S
C195        C196   1.366       .  D
C196       C1695   1.490       .  S
O201        C204   1.263       .  A
O201       Cd206   2.460       .  S
C202        O211   1.265       .  A
C202        O207   1.262       .  A
C202       C1672   1.473       .  S
O203        C209   1.266       .  A
O203       Cd206   2.498       .  S
C204        O212   1.269       .  A
C204       C1642   1.493       .  S
C205        O210   1.261       .  A
C205        O208   1.267       .  A
C205       C1662   1.484       .  S
Cd206       O213   2.470       .  S
Cd206       O212   2.496       .  S
Cd206       O211   2.462       .  S
Cd206       O207   2.432       .  S
Cd206       O210   2.435       .  S
Cd206       O208   2.513       .  S
C209        O213   1.264       .  A
C209       C1652   1.492       .  S
O214        C217   1.265       .  A
O214       Cd219   2.446       .  S
C215        O224   1.269       .  A
C215        O220   1.264       .  A
C215       C1612   1.489       .  S
O216        C222   1.260       .  A
O216       Cd219   2.436       .  S
C217        O225   1.264       .  A
C217       C1632   1.475       .  S
C218        O223   1.265       .  A
C218        O221   1.261       .  A
C218       C1665   1.489       .  S
Cd219       O226   2.527       .  S
Cd219       O225   2.448       .  S
Cd219       O224   2.505       .  S
Cd219       O220   2.432       .  S
Cd219       O223   2.487       .  S
Cd219       O221   2.477       .  S
C222        O226   1.270       .  A
C222       C1625   1.486       .  S
O227        C230   1.265       .  A
O227       Cd232   2.458       .  S
C228        O237   1.264       .  A
C228        O233   1.263       .  A
C228       C1635   1.482       .  S
O229        C235   1.262       .  A
O229       Cd232   2.467       .  S
C230        O238   1.269       .  A
C230       C1582   1.492       .  S
C231        O236   1.263       .  A
C231        O234   1.262       .  A
C231       C1602   1.487       .  S
Cd232       O239   2.495       .  S
Cd232       O238   2.489       .  S
Cd232       O237   2.432       .  S
Cd232       O233   2.468       .  S
Cd232       O236   2.494       .  S
Cd232       O234   2.486       .  S
C235        O239   1.268       .  A
C235       C1592   1.483       .  S
O240        C243   1.263       .  A
O240       Cd245   2.449       .  S
C241        O250   1.263       .  A
C241        O246   1.265       .  A
C241       C1675   1.475       .  S
O242        C248   1.267       .  A
O242       Cd245   2.522       .  S
C243        O251   1.271       .  A
C243       C1562   1.487       .  S
C244        O249   1.266       .  A
C244        O247   1.262       .  A
C244       C1572   1.494       .  S
Cd245       O252   2.435       .  S
Cd245       O251   2.500       .  S
Cd245       O250   2.434       .  S
Cd245       O246   2.452       .  S
Cd245       O249   2.509       .  S
Cd245       O247   2.460       .  S
C248        O252   1.261       .  A
C248       C1605   1.484       .  S
O253        C256   1.266       .  A
O253       Cd258   2.461       .  S
C254        O263   1.263       .  A
C254        O259   1.267       .  A
C254       C1552   1.483       .  S
O255        C261   1.264       .  A
O255       Cd258   2.511       .  S
C256        O264   1.267       .  A
C256       C1785   1.498       .  S
C257        O262   1.269       .  A
C257        O260   1.259       .  A
C257       C1532   1.490       .  S
Cd258       O265   2.463       .  S
Cd258       O264   2.518       .  S
Cd258       O263   2.450       .  S
Cd258       O259   2.458       .  S
Cd258       O262   2.529       .  S
Cd258       O260   2.460       .  S
C261        O265   1.263       .  A
C261       C1542   1.490       .  S
O266        C269   1.263       .  A
O266       Cd271   2.447       .  S
C267        O276   1.265       .  A
C267        O272   1.263       .  A
C267       C1555   1.480       .  S
O268        C274   1.261       .  A
O268       Cd271   2.466       .  S
C269        O277   1.271       .  A
C269       C1755   1.497       .  S
C270        O275   1.263       .  A
C270        O273   1.262       .  A
C270       C1525   1.491       .  S
Cd271       O278   2.506       .  S
Cd271       O277   2.515       .  S
Cd271       O276   2.451       .  S
Cd271       O272   2.449       .  S
Cd271       O275   2.494       .  S
Cd271       O273   2.477       .  S
C274        O278   1.267       .  A
C274       C1512   1.485       .  S
O279        C282   1.262       .  A
O279       Cd284   2.438       .  S
C280        O289   1.264       .  A
C280        O285   1.266       .  A
C280       C1502   1.478       .  S
O281        C287   1.270       .  A
O281       Cd284   2.545       .  S
C282        O290   1.269       .  A
C282       C1725   1.487       .  S
C283        O288   1.264       .  A
C283        O286   1.263       .  A
C283       C1545   1.489       .  S
Cd284       O291   2.394       .  S
Cd284       O290   2.498       .  S
Cd284       O289   2.457       .  S
Cd284       O285   2.437       .  S
Cd284       O288   2.478       .  S
Cd284       O286   2.468       .  S
C287        O291   1.260       .  A
C287       C1492   1.488       .  S
O292        C295   1.265       .  A
O292       Cd297   2.442       .  S
C293        O302   1.268       .  A
C293        O298   1.265       .  A
C293       C1745   1.493       .  S
O294        C300   1.270       .  A
O294       Cd297   2.520       .  S
C295        O303   1.264       .  A
C295       C1505   1.476       .  S
C296        O301   1.260       .  A
C296        O299   1.266       .  A
C296       C1522   1.489       .  S
Cd297       O304   2.413       .  S
Cd297       O303   2.451       .  S
Cd297       O302   2.493       .  S
Cd297       O298   2.482       .  S
Cd297       O301   2.463       .  S
Cd297       O299   2.496       .  S
C300        O304   1.262       .  A
C300       C1482   1.487       .  S
C305        C306   1.542       .  S
C305        C311   1.546       .  S
C305        C309   1.556       .  S
C305       C1452   1.551       .  S
C306        H313   1.086       .  S
C306        C307   1.366       .  D
C307        C308   1.535       .  S
C307       C1462   1.496       .  S
C308        C312   1.536       .  S
C308        C310   1.538       .  S
C308        H314   1.111       .  S
C309        H315   1.082       .  S
C309        C310   1.374       .  D
C310       C1575   1.495       .  S
C311        H316   1.086       .  S
C311        C312   1.367       .  D
C312       C1472   1.488       .  S
C317        C318   1.540       .  S
C317        C323   1.533       .  S
C317        C321   1.553       .  S
C317       C1432   1.542       .  S
C318        H325   1.086       .  S
C318        C319   1.363       .  D
C319        C320   1.539       .  S
C319       C1445   1.487       .  S
C320        C324   1.546       .  S
C320        C322   1.543       .  S
C320        H326   1.110       .  S
C321        H327   1.083       .  S
C321        C322   1.374       .  D
C322       C1655   1.488       .  S
C323        H328   1.087       .  S
C323        C324   1.363       .  D
C324       C1465   1.494       .  S
C329        C330   1.552       .  S
C329        C335   1.546       .  S
C329        C333   1.544       .  S
C329       C1455   1.557       .  S
C330        H337   1.081       .  S
C330        C331   1.364       .  D
C331        C332   1.538       .  S
C331       C1422   1.496       .  S
C332        C336   1.539       .  S
C332        C334   1.538       .  S
C332        H338   1.111       .  S
C333        H339   1.085       .  S
C333        C334   1.368       .  D
C334       C1535   1.482       .  S
C335        H340   1.086       .  S
C335        C336   1.371       .  D
C336       C2015   1.493       .  S
C341        C342   1.550       .  S
C341        C347   1.542       .  S
C341        C345   1.539       .  S
C341       C1415   1.543       .  S
C342        H349   1.082       .  S
C342        C343   1.363       .  D
C343        C344   1.534       .  S
C343       C2045   1.479       .  S
C344        C348   1.545       .  S
C344        C346   1.541       .  S
C344        H350   1.110       .  S
C345        H351   1.086       .  S
C345        C346   1.366       .  D
C346       C1515   1.483       .  S
C347        H352   1.086       .  S
C347        C348   1.368       .  D
C348       C1425   1.500       .  S
C353        C354   1.546       .  S
C353        C359   1.539       .  S
C353        C357   1.542       .  S
C353       C1412   1.544       .  S
C354        H361   1.082       .  S
C354        C355   1.362       .  D
C355        C356   1.543       .  S
C355       C1402   1.488       .  S
C356        C360   1.547       .  S
C356        C358   1.544       .  S
C356        H362   1.110       .  S
C357        H363   1.086       .  S
C357        C358   1.371       .  D
C358       C1595   1.499       .  S
C359        H364   1.086       .  S
C359        C360   1.367       .  D
C360       C1392   1.496       .  S
C365        C366   1.553       .  S
C365        C371   1.542       .  S
C365        C369   1.539       .  S
C365       C1372   1.547       .  S
C366        H373   1.080       .  S
C366        C367   1.368       .  D
C367        C368   1.540       .  S
C367       C1395   1.498       .  S
C368        C372   1.536       .  S
C368        C370   1.541       .  S
C368        H374   1.111       .  S
C369        H375   1.086       .  S
C369        C370   1.364       .  D
C370       C1622   1.479       .  S
C371        H376   1.086       .  S
C371        C372   1.367       .  D
C372       C1382   1.488       .  S
C377        C378   1.536       .  S
C377        C383   1.554       .  S
C377        C381   1.545       .  S
C377       C1435   1.545       .  S
C378        H385   1.086       .  S
C378        C379   1.362       .  D
C379        C380   1.533       .  S
C379       C1965   1.476       .  S
C380        C384   1.539       .  S
C380        C382   1.539       .  S
C380        H386   1.111       .  S
C381        H387   1.085       .  S
C381        C382   1.368       .  D
C382       C1495   1.487       .  S
C383        H388   1.082       .  S
C383        C384   1.369       .  D
C384       C1362   1.495       .  S
C389        C390   1.537       .  S
C389        C395   1.540       .  S
C389        C393   1.550       .  S
C389       C1375   1.543       .  S
C390        H397   1.087       .  S
C390        C391   1.363       .  D
C391        C392   1.541       .  S
C391       C1365   1.493       .  S
C392        C396   1.542       .  S
C392        C394   1.544       .  S
C392        H398   1.108       .  S
C393        H399   1.082       .  S
C393        C394   1.369       .  D
C394       C1485   1.484       .  S
C395        H400   1.086       .  S
C395        C396   1.368       .  D
C396       C1985   1.495       .  S
O401        C404   1.263       .  A
O401       Cd406   2.415       .  S
C402        O411   1.266       .  A
C402        O407   1.261       .  A
C402       C1342   1.474       .  S
O403        C409   1.261       .  A
O403       Cd406   2.454       .  S
C404        O412   1.271       .  A
C404       C1832   1.483       .  S
C405        O410   1.266       .  A
C405        O408   1.264       .  A
C405       C1352   1.494       .  S
Cd406       O413   2.518       .  S
Cd406       O412   2.505       .  S
Cd406       O411   2.465       .  S
Cd406       O407   2.416       .  S
Cd406       O410   2.510       .  S
Cd406       O408   2.473       .  S
C409        O413   1.268       .  A
C409       C1332   1.493       .  S
O414        C417   1.263       .  A
O414       Cd419   2.458       .  S
C415        O424   1.269       .  A
C415        O420   1.265       .  A
C415       C1702   1.495       .  S
O416        C422   1.264       .  A
O416       Cd419   2.506       .  S
C417        O425   1.264       .  A
C417       C1322   1.475       .  S
C418        O423   1.262       .  A
C418        O421   1.264       .  A
C418       C1355   1.496       .  S
Cd419       O426   2.483       .  S
Cd419       O425   2.444       .  S
Cd419       O424   2.509       .  S
Cd419       O420   2.445       .  S
Cd419       O423   2.489       .  S
Cd419       O421   2.502       .  S
C422        O426   1.267       .  A
C422       C1312   1.489       .  S
O427        C430   1.261       .  A
O427       Cd432   2.416       .  S
C428        O437   1.264       .  A
C428        O433   1.265       .  A
C428       C1325   1.480       .  S
O429        C435   1.258       .  A
O429       Cd432   2.410       .  S
C430        O438   1.272       .  A
C430       C1685   1.486       .  S
C431        O436   1.263       .  A
C431        O434   1.266       .  A
C431       C1302   1.491       .  S
Cd432       O439   2.547       .  S
Cd432       O438   2.517       .  S
Cd432       O437   2.451       .  S
Cd432       O433   2.430       .  S
Cd432       O436   2.474       .  S
Cd432       O434   2.495       .  S
C435        O439   1.272       .  A
C435       C1292   1.491       .  S
O440        C443   1.264       .  A
O440       Cd445   2.404       .  S
C441        O450   1.268       .  A
C441        O446   1.266       .  A
C441       C1802   1.491       .  S
O442        C448   1.263       .  A
O442       Cd445   2.480       .  S
C443        O451   1.265       .  A
C443       C1345   1.469       .  S
C444        O449   1.265       .  A
C444        O447   1.263       .  A
C444       C1305   1.488       .  S
Cd445       O452   2.491       .  S
Cd445       O451   2.467       .  S
Cd445       O450   2.479       .  S
Cd445       O446   2.460       .  S
Cd445       O449   2.481       .  S
Cd445       O447   2.481       .  S
C448        O452   1.265       .  A
C448       C1282   1.494       .  S
O453        C456   1.261   1_554  A
O453       Cd458   2.420       .  S
C454        O463   1.263       .  A
C454        O459   1.266       .  A
C454       C1272   1.472       .  S
O455        C461   1.272       .  A
O455       Cd458   2.555       .  S
C456        O464   1.272   1_556  A
C456       C1242   1.485       .  S
C457        O462   1.265       .  A
C457        O460   1.265       .  A
C457       C1262   1.496       .  S
Cd458       O465   2.417       .  S
Cd458       O464   2.511       .  S
Cd458       O463   2.415       .  S
Cd458       O459   2.441       .  S
Cd458       O462   2.506       .  S
Cd458       O460   2.474       .  S
C461        O465   1.258       .  A
C461       C1255   1.493       .  S
O466        C469   1.262       .  A
O466       Cd471   2.429       .  S
C467        O476   1.272   1_556  A
C467        O472   1.264   1_556  A
C467       C1212   1.487       .  S
O468        C474   1.266       .  A
O468       Cd471   2.531       .  S
C469        O477   1.264       .  A
C469       C1275   1.477       .  S
C470        O475   1.267       .  A
C470        O473   1.260       .  A
C470       C1232   1.486       .  S
Cd471       O478   2.461       .  S
Cd471       O477   2.446       .  S
Cd471       O476   2.482       .  S
Cd471       O472   2.433       .  S
Cd471       O475   2.520       .  S
Cd471       O473   2.443       .  S
C474        O478   1.260       .  A
C474       C1222   1.495       .  S
O479        C482   1.263       .  A
O479       Cd484   2.431       .  S
C480        O489   1.271   1_556  A
C480        O485   1.262       .  A
C480       C1185   1.492       .  S
O481        C487   1.270       .  A
O481       Cd484   2.549       .  S
C482        O490   1.265       .  A
C482       C1205   1.473       .  S
C483        O488   1.260       .  A
C483        O486   1.265       .  A
C483       C1265   1.494       .  S
Cd484       O491   2.438       .  S
Cd484       O490   2.465       .  S
Cd484       O489   2.515       .  S
Cd484       O485   2.442   1_554  S
Cd484       O488   2.466       .  S
Cd484       O486   2.521       .  S
C487        O491   1.262       .  A
C487       C1192   1.498       .  S
O492        C495   1.262       .  A
O492       Cd497   2.411   1_556  S
C493        O502   1.264       .  A
C493        O498   1.264       .  A
C493       C1202   1.479       .  S
O494        C500   1.270       .  A
O494       Cd497   2.524       .  S
C495        O503   1.270   1_556  A
C495       C1162   1.479       .  S
C496        O501   1.264       .  A
C496        O499   1.264       .  A
C496       C1235   1.487       .  S
Cd497       O504   2.431       .  S
Cd497       O503   2.512       .  S
Cd497       O502   2.455       .  S
Cd497       O498   2.430       .  S
Cd497       O501   2.456       .  S
Cd497       O499   2.483       .  S
C500        O504   1.261       .  A
C500       C1172   1.488       .  S
C505        C506   1.551       .  S
C505        C511   1.534       .  S
C505        C509   1.554       .  S
C505       C1142   1.561       .  S
C506        H513   1.082       .  S
C506        C507   1.369       .  D
C507        C508   1.542       .  S
C507       C1152   1.513       .  S
C508        C512   1.546       .  S
C508        C510   1.545       .  S
C508        H514   1.093       .  S
C509        H515   1.084       .  S
C509        C510   1.384       .  D
C510       C1315   1.522       .  S
C511        H516   1.086       .  S
C511        C512   1.359       .  D
C512       C1895   1.482       .  S
C517        C518   1.542       .  S
C517        C523   1.538       .  S
C517        C521   1.552       .  S
C517       C1132   1.544       .  S
C518        H525   1.086       .  S
C518        C519   1.365       .  D
C519        C520   1.541       .  S
C519       C1865   1.490       .  S
C520        C524   1.546       .  S
C520        C522   1.540       .  S
C520        H526   1.111       .  S
C521        H527   1.080       .  S
C521        C522   1.368       .  D
C522       C1295   1.489       .  S
C523        H528   1.086       .  S
C523        C524   1.366       .  D
C524       C1155   1.502       .  S
C529        C530   1.541       .  S
C529        C535   1.544       .  S
C529        C533   1.556       .  S
C529       C1105   1.554       .  S
C530        H537   1.086       .  S
C530        C531   1.367       .  D
C531        C532   1.544       .  S
C531       C1115   1.499       .  S
C532        C536   1.538       .  S
C532        C534   1.539       .  S
C532        H538   1.110       .  S
C533        H539   1.081       .  S
C533        C534   1.371       .  D
C534       C1195   1.493       .  S
C535        H540   1.086       .  S
C535        C536   1.367       .  D
C536       C1122   1.490       .  S
C541        C542   1.542       .  S
C541        C547   1.549       .  S
C541        C545   1.553       .  S
C541       C1135   1.551       .  S
C542        H549   1.085       .  S
C542        C543   1.370       .  D
C543        C544   1.541       .  S
C543       C1095   1.495       .  S
C544        C548   1.539       .  S
C544        C546   1.536       .  S
C544        H550   1.111       .  S
C545        H551   1.085       .  S
C545        C546   1.372       .  D
C546       C1175   1.487       .  S
C547        H552   1.081       .  S
C547        C548   1.359       .  D
C548       C1112   1.498       .  S
C553        C554   1.549       .  S
C553        C559   1.546       .  S
C553        C557   1.546       .  S
C553       C1062   1.554       .  S
C554        H561   1.082       .  S
C554        C555   1.364       .  D
C555        C556   1.536       .  S
C555       C1082   1.488       .  S
C556        C560   1.540       .  S
C556        C558   1.538       .  S
C556        H562   1.111       .  S
C557        H563   1.086       .  S
C557        C558   1.371       .  D
C558       C1252   1.493   1_565  S
C559        H564   1.086       .  S
C559        C560   1.369       .  D
C560       C1072   1.493       .  S
C565        C566   1.540       .  S
C565        C571   1.546       .  S
C565        C569   1.558       .  S
C565       C1145   1.554       .  S
C566        H573   1.086       .  S
C566        C567   1.362       .  D
C567        C568   1.536       .  S
C567       C1075   1.491       .  S
C568        C572   1.536       .  S
C568        C570   1.538       .  S
C568        H574   1.111       .  S
C569        H575   1.083       .  S
C569        C570   1.375       .  D
C570       C1225   1.496   1_565  S
C571        H576   1.085       .  S
C571        C572   1.369       .  D
C572       C1052   1.490       .  S
C577        C578   1.553       .  S
C577        C583   1.541       .  S
C577        C581   1.539       .  S
C577       C1065   1.553       .  S
C578        H585   1.081       .  S
C578        C579   1.371       .  D
C579        C580   1.537       .  S
C579       C1925   1.489       .  S
C580        C584   1.548       .  S
C580        C582   1.545       .  S
C580        H586   1.110       .  S
C581        H587   1.086       .  S
C581        C582   1.364       .  D
C582       C1335   1.488       .  S
C583        H588   1.086       .  S
C583        C584   1.371       .  D
C584       C1045   1.508       .  S
C589        C590   1.550       .  S
C589        C595   1.546       .  S
C589        C593   1.548       .  S
C589       C1102   1.556       .  S
C590        H597   1.082       .  S
C590        C591   1.366       .  D
C591        C592   1.540       .  S
C591       C1042   1.499       .  S
C592        C596   1.534       .  S
C592        C594   1.538       .  S
C592        H598   1.111       .  S
C593        H599   1.085       .  S
C593        C594   1.371       .  D
C594       C1285   1.486       .  S
C595        H600   1.086       .  S
C595        C596   1.369       .  D
C596       C1845   1.491       .  S
O601        C604   1.264       .  A
O601       Cd606   2.446       .  S
C602        O611   1.269       .  A
C602        O607   1.267       .  A
C602       C1442   1.492       .  S
O603        C609   1.262       .  A
O603       Cd606   2.480       .  S
C604        O612   1.263       .  A
C604       C1032   1.472       .  S
C605        O610   1.263       .  A
C605        O608   1.265       .  A
C605       C1015   1.497       .  S
Cd606       O613   2.504       .  S
Cd606       O612   2.451       .  S
Cd606       O611   2.488       .  S
Cd606       O607   2.451       .  S
Cd606       O610   2.498       .  S
Cd606       O608   2.520       .  S
C609        O613   1.265       .  A
C609       C1022   1.492       .  S
O614        C617   1.264       .  A
O614       Cd619   2.431       .  S
C615        O624   1.269       .  A
C615        O620   1.264       .  A
C615       C1385   1.485       .  S
O616        C622   1.262       .  A
O616       Cd619   2.453       .  S
C617        O625   1.264       .  A
C617       C1005   1.474       .  S
C618        O623   1.263       .  A
C618        O621   1.265       .  A
C618       C1025   1.494       .  S
Cd619       O626   2.535       .  S
Cd619       O625   2.459       .  S
Cd619       O624   2.502       .  S
Cd619       O620   2.457       .  S
Cd619       O623   2.474       .  S
Cd619       O621   2.505       .  S
C622        O626   1.270       .  A
C622        C995   1.492       .  S
O627        C630   1.262       .  A
O627       Cd632   2.419       .  S
C628        O637   1.272       .  A
C628        O633   1.262       .  A
C628       C1405   1.494       .  S
O629        C635   1.266       .  A
O629       Cd632   2.498       .  S
C630        O638   1.265       .  A
C630       C1002   1.469       .  S
C631        O636   1.259       .  A
C631        O634   1.270       .  A
C631        C975   1.494       .  S
Cd632       O639   2.483       .  S
Cd632       O638   2.457       .  S
Cd632       O637   2.520       .  S
Cd632       O633   2.434       .  S
Cd632       O636   2.461       .  S
Cd632       O634   2.546       .  S
C635        O639   1.262       .  A
C635        C985   1.494       .  S
O640        C643   1.264       .  A
O640       Cd645   2.416       .  S
C641        O650   1.266       .  A
C641        O646   1.260       .  A
C641       C1035   1.474       .  S
O642        C648   1.260       .  A
O642       Cd645   2.449       .  S
C643        O651   1.270       .  A
C643       C1475   1.491       .  S
C644        O649   1.270       .  A
C644        O647   1.261       .  A
C644        C962   1.493       .  S
Cd645       O652   2.520       .  S
Cd645       O651   2.513       .  S
Cd645       O650   2.479       .  S
Cd645       O646   2.411       .  S
Cd645       O649   2.535       .  S
Cd645       O647   2.444       .  S
C648        O652   1.267       .  A
C648        C982   1.490       .  S
O653        C656   1.263   1_556  A
O653       Cd658   2.451       .  S
C654        O663   1.265       .  A
C654        O659   1.263       .  A
C654        C955   1.475       .  S
O655        C661   1.267       .  A
O655       Cd658   2.502       .  S
C656        O664   1.271   1_554  A
C656       C1085   1.492       .  S
C657        O662   1.263       .  A
C657        O660   1.263       .  A
C657        C942   1.491       .  S
Cd658       O665   2.467       .  S
Cd658       O664   2.492       .  S
Cd658       O663   2.425       .  S
Cd658       O659   2.466       .  S
Cd658       O662   2.483       .  S
Cd658       O660   2.486       .  S
C661        O665   1.263       .  A
C661        C932   1.489       .  S
O666        C669   1.266       .  A
O666       Cd671   2.475       .  S
C667        O676   1.269   1_554  A
C667        O672   1.261   1_554  A
C667       C1055   1.491       .  S
O668        C674   1.271       .  A
O668       Cd671   2.531       .  S
C669        O677   1.263       .  A
C669        C952   1.471       .  S
C670        O675   1.262       .  A
C670        O673   1.266       .  A
C670        C922   1.493       .  S
Cd671       O678   2.419       .  S
Cd671       O677   2.402       .  S
Cd671       O676   2.503       .  S
Cd671       O672   2.445       .  S
Cd671       O675   2.474       .  S
Cd671       O673   2.485       .  S
C674        O678   1.258       .  A
C674        C912   1.491       .  S
O679        C682   1.263       .  A
O679       Cd684   2.426       .  S
C680        O689   1.262       .  A
C680        O685   1.264       .  A
C680        C902   1.476       .  S
O681        C687   1.267       .  A
O681       Cd684   2.519       .  S
C682        O690   1.270       .  A
C682       C1092   1.490   1_556  S
C683        O688   1.264       .  A
C683        O686   1.261       .  A
C683        C925   1.490       .  S
Cd684       O691   2.446       .  S
Cd684       O690   2.497       .  S
Cd684       O689   2.447       .  S
Cd684       O685   2.466       .  S
Cd684       O688   2.490       .  S
Cd684       O686   2.466       .  S
C687        O691   1.262       .  A
C687        C892   1.492       .  S
O692        C695   1.263       .  A
O692       Cd697   2.437       .  S
C693        O702   1.269       .  A
C693        O698   1.264       .  A
C693       C1125   1.491   1_556  S
O694        C700   1.268       .  A
O694       Cd697   2.536       .  S
C695        O703   1.266       .  A
C695        C905   1.476       .  S
C696        O701   1.266       .  A
C696        O699   1.261       .  A
C696        C945   1.488       .  S
Cd697       O704   2.443       .  S
Cd697       O703   2.469       .  S
Cd697       O702   2.522       .  S
Cd697       O698   2.439       .  S
Cd697       O701   2.509       .  S
Cd697       O699   2.461       .  S
C700        O704   1.263       .  A
C700        C882   1.498       .  S
C705        C706   1.551       .  S
C705        C711   1.539       .  S
C705        C709   1.554       .  S
C705        C862   1.561       .  S
C706        H713   1.080       .  S
C706        C707   1.366       .  D
C707        C708   1.541       .  S
C707        C875   1.500       .  S
C708        C712   1.540       .  S
C708        C710   1.542       .  S
C708        H714   1.109       .  S
C709        H715   1.085       .  S
C709        C710   1.377       .  D
C710        C885   1.499       .  S
C711        H716   1.086       .  S
C711        C712   1.365       .  D
C712       C1182   1.488       .  S
C717        C718   1.535       .  S
C717        C723   1.547       .  S
C717        C721   1.547       .  S
C717        C852   1.547       .  S
C718        H725   1.086       .  S
C718        C719   1.366       .  D
C719        C720   1.538       .  S
C719       C1165   1.482       .  S
C720        C724   1.543       .  S
C720        C722   1.537       .  S
C720        H726   1.111       .  S
C721        H727   1.085       .  S
C721        C722   1.368       .  D
C722        C895   1.481       .  S
C723        H728   1.081       .  S
C723        C724   1.364       .  D
C724        C872   1.497       .  S
C729        C730   1.539       .  S
C729        C735   1.538       .  S
C729        C733   1.553       .  S
C729        C832   1.546       .  S
C730        H737   1.086       .  S
C730        C731   1.368       .  D
C731        C732   1.550       .  S
C731        C842   1.506       .  S
C732        C736   1.544       .  S
C732        C734   1.543       .  S
C732        H738   1.108       .  S
C733        H739   1.081       .  S
C733        C734   1.372       .  D
C734        C965   1.496       .  S
C735        H740   1.086       .  S
C735        C736   1.361       .  D
C736       C1565   1.485       .  S
C741        C742   1.541       .  S
C741        C747   1.539       .  S
C741        C745   1.555       .  S
C741        C855   1.544       .  S
C742        H749   1.086       .  S
C742        C743   1.361       .  D
C743        C744   1.536       .  S
C743       C1645   1.480       .  S
C744        C748   1.545       .  S
C744        C746   1.541       .  S
C744        H750   1.110       .  S
C745        H751   1.082       .  S
C745        C746   1.374       .  D
C746       C1012   1.498       .  S
C747        H752   1.085       .  S
C747        C748   1.366       .  D
C748        C845   1.502       .  S
C753        C754   1.547       .  S
C753        C759   1.541       .  S
C753        C757   1.538       .  S
C753        C812   1.549       .  S
C754        H761   1.082       .  S
C754        C755   1.366       .  D
C755        C756   1.542       .  S
C755       C1585   1.493       .  S
C756        C760   1.552       .  S
C756        C758   1.545       .  S
C756        H762   1.108       .  S
C757        H763   1.086       .  S
C757        C758   1.364       .  D
C758        C972   1.488       .  S
C759        H764   1.086       .  S
C759        C760   1.373       .  D
C760        C822   1.508       .  S
C765        C766   1.546       .  S
C765        C771   1.544       .  S
C765        C769   1.552       .  S
C765        C865   1.558       .  S
C766        H773   1.085       .  S
C766        C767   1.372       .  D
C767        C768   1.545       .  S
C767        C825   1.510       .  S
C768        C772   1.539       .  S
C768        C770   1.540       .  S
C768        H774   1.110       .  S
C769        H775   1.082       .  S
C769        C770   1.369       .  D
C770        C992   1.489       .  S
C771        H776   1.086       .  S
C771        C772   1.369       .  D
C772       C1615   1.493       .  S
C777        C778   1.550       .  S
C777        C783   1.543       .  S
C777        C781   1.546       .  S
C777        C835   1.549       .  S
C778        H785   1.081       .  S
C778        C779   1.364       .  D
C779        C780   1.533       .  S
C779        C805   1.485       .  S
C780        C784   1.539       .  S
C780        C782   1.533       .  S
C780        H786   1.111       .  S
C781        H787   1.085       .  S
C781        C782   1.366       .  D
C782        C915   1.481       .  S
C783        H788   1.084       .  S
C783        C784   1.370       .  D
C784       C1215   1.491       .  S
C789        C790   1.550       .  S
C789        C795   1.540       .  S
C789        C793   1.545       .  S
C789        C815   1.546       .  S
C790        H797   1.082       .  S
C790        C791   1.366       .  D
C791        C792   1.533       .  S
C791       C1245   1.481       .  S
C792        C796   1.539       .  S
C792        C794   1.537       .  S
C792        H798   1.111       .  S
C793        H799   1.086       .  S
C793        C794   1.370       .  D
C794        C935   1.488       .  S
C795        H800   1.086       .  S
C795        C796   1.365       .  D
C796        C802   1.489       .  S
C801        C802   1.404       .  A
C801        C806   1.399   1_455  A
C801        H808   1.084       .  S
C802        C803   1.412       .  A
C803        C804   1.405   1_455  A
C803       Br810   1.916       .  S
C804        C805   1.402       .  A
C804        H809   1.083       .  S
C805        C806   1.410       .  A
C806       Br807   1.920       .  S
C811        C812   1.413       .  A
C811        C816   1.403       .  A
C811        H818   1.076       .  S
C812        C813   1.418       .  A
C813        C814   1.404       .  A
C813       Br820   1.924       .  S
C814        C815   1.412       .  A
C814        H819   1.077       .  S
C815        C816   1.417       .  A
C816       Br817   1.925       .  S
C821        C822   1.406       .  A
C821        C826   1.401       .  A
C821        H828   1.083       .  S
C822        C823   1.415       .  A
C823        C824   1.409       .  A
C823       Br830   1.914       .  S
C824        C825   1.408       .  A
C824        H829   1.080       .  S
C825        C826   1.416       .  A
C826       Br827   1.914       .  S
C831        C832   1.411       .  A
C831        C836   1.406       .  A
C831        H838   1.076       .  S
C832        C833   1.419       .  A
C833        C834   1.401       .  A
C833       Br840   1.927       .  S
C834        C835   1.411       .  A
C834        H839   1.075       .  S
C835        C836   1.420       .  A
C836       Br837   1.923       .  S
C841        C842   1.410       .  A
C841        C846   1.406       .  A
C841        H848   1.083       .  S
C842        C843   1.413       .  A
C843        C844   1.402       .  A
C843       Br850   1.908       .  S
C844        C845   1.403       .  A
C844        H849   1.080       .  S
C845        C846   1.416       .  A
C846       Br847   1.921       .  S
C851        C852   1.410       .  A
C851        C856   1.397       .  A
C851        H858   1.077       .  S
C852        C853   1.420       .  A
C853        C854   1.409       .  A
C853       Br860   1.923       .  S
C854        C855   1.412       .  A
C854        H859   1.078       .  S
C855        C856   1.418       .  A
C856       Br857   1.927       .  S
C861        C862   1.413       .  A
C861        C866   1.402       .  A
C861        H868   1.074       .  S
C862        C863   1.421       .  A
C863        C864   1.413       .  A
C863       Br870   1.922       .  S
C864        C865   1.415       .  A
C864        H869   1.077       .  S
C865        C866   1.419       .  A
C866       Br867   1.922       .  S
C871        C872   1.406       .  A
C871        C876   1.408   1_655  A
C871        H878   1.083       .  S
C872        C873   1.415       .  A
C873        C874   1.399   1_655  A
C873       Br880   1.923       .  S
C874        C875   1.406       .  A
C874        H879   1.083       .  S
C875        C876   1.413       .  A
C876       Br877   1.916       .  S
C881        C882   1.406       .  A
C881        C886   1.396       .  A
C881        H888   1.083       .  S
C882        C883   1.417       .  A
C883        C884   1.410       .  A
C883       Br890   1.918       .  S
C884        C885   1.408       .  A
C884        H889   1.083       .  S
C885        C886   1.411       .  A
C886       Br887   1.915       .  S
C891        C892   1.410       .  A
C891        C896   1.398       .  A
C891        H898   1.083       .  S
C892        C893   1.416       .  A
C893        C894   1.406       .  A
C893       Br900   1.920       .  S
C894        C895   1.404       .  A
C894        H899   1.084       .  S
C895        C896   1.401       .  A
C896       Br897   1.914       .  S
C901        C902   1.404       .  A
C901        C906   1.396   1_655  A
C901        H908   1.083       .  S
C902        C903   1.412       .  A
C903        C904   1.397   1_655  A
C903       Br910   1.921       .  S
C904        C905   1.403       .  A
C904        H909   1.083       .  S
C905        C906   1.412       .  A
C906       Br907   1.922       .  S
C911        C912   1.406       .  A
C911        C916   1.403   1_565  A
C911        H918   1.083       .  S
C912        C913   1.421       .  A
C913        C914   1.400   1_565  A
C913       Br920   1.923       .  S
C914        C915   1.396       .  A
C914        H919   1.083       .  S
C915        C916   1.408       .  A
C916       Br917   1.913       .  S
C921        C922   1.406       .  A
C921        C926   1.401       .  A
C921        H928   1.083       .  S
C922        C923   1.417       .  A
C923        C924   1.402       .  A
C923       Br930   1.922       .  S
C924        C925   1.406       .  A
C924        H929   1.083       .  S
C925        C926   1.415       .  A
C926       Br927   1.922       .  S
C931        C932   1.410       .  A
C931        C936   1.404       .  A
C931        H938   1.083       .  S
C932        C933   1.414       .  A
C933        C934   1.399   1_565  A
C933       Br940   1.921       .  S
C934        C935   1.404       .  A
C934        H939   1.083       .  S
C935        C936   1.408   1_545  A
C936       Br937   1.918       .  S
C941        C942   1.407       .  A
C941        C946   1.401       .  A
C941        H948   1.083       .  S
C942        C943   1.415       .  A
C943        C944   1.403       .  A
C943       Br950   1.920       .  S
C944        C945   1.405       .  A
C944        H949   1.083       .  S
C945        C946   1.412       .  A
C946       Br947   1.921       .  S
C951        C952   1.403       .  A
C951        C956   1.399   1_655  A
C951        H958   1.084       .  S
C952        C953   1.409       .  A
C953        C954   1.392   1_655  A
C953       Br960   1.922       .  S
C954        C955   1.403       .  A
C954        H959   1.084       .  S
C955        C956   1.414       .  A
C956       Br957   1.921       .  S
C961        C962   1.409       .  A
C961        C966   1.401       .  A
C961        H968   1.083       .  S
C962        C963   1.412       .  A
C963        C964   1.404       .  A
C963       Br970   1.918       .  S
C964        C965   1.408       .  A
C964        H969   1.082       .  S
C965        C966   1.410       .  A
C966       Br967   1.919       .  S
C971        C972   1.399       .  A
C971        C976   1.403       .  A
C971        H978   1.083       .  S
C972        C973   1.409       .  A
C973        C974   1.404       .  A
C973       Br980   1.913       .  S
C974        C975   1.406       .  A
C974        H979   1.083       .  S
C975        C976   1.419       .  A
C976       Br977   1.921       .  S
C981        C982   1.406       .  A
C981        C986   1.404       .  A
C981        H988   1.083       .  S
C982        C983   1.414       .  A
C983        C984   1.401       .  A
C983       Br990   1.922       .  S
C984        C985   1.406       .  A
C984        H989   1.083       .  S
C985        C986   1.417       .  A
C986       Br987   1.920       .  S
C991        C992   1.399       .  A
C991        C996   1.400       .  A
C991        H998   1.081       .  S
C992        C993   1.412       .  A
C993        C994   1.407       .  A
C993      Br1000   1.918       .  S
C994        C995   1.407       .  A
C994        H999   1.083       .  S
C995        C996   1.417       .  A
C996       Br997   1.920       .  S
C1001      C1002   1.402       .  A
C1001      C1006   1.395       .  A
C1001      H1008   1.084       .  S
C1002      C1003   1.409       .  A
C1003      C1004   1.394       .  A
C1003     Br1010   1.922       .  S
C1004      C1005   1.405       .  A
C1004      H1009   1.084       .  S
C1005      C1006   1.413       .  A
C1006     Br1007   1.920       .  S
C1011      C1012   1.406       .  A
C1011      C1016   1.403       .  A
C1011      H1018   1.082       .  S
C1012      C1013   1.411       .  A
C1013      C1014   1.407       .  A
C1013     Br1020   1.919       .  S
C1014      C1015   1.410       .  A
C1014      H1019   1.083       .  S
C1015      C1016   1.416       .  A
C1016     Br1017   1.922       .  S
C1021      C1022   1.406       .  A
C1021      C1026   1.403       .  A
C1021      H1028   1.083       .  S
C1022      C1023   1.413       .  A
C1023      C1024   1.403       .  A
C1023     Br1030   1.920       .  S
C1024      C1025   1.408       .  A
C1024      H1029   1.083       .  S
C1025      C1026   1.416       .  A
C1026     Br1027   1.921       .  S
C1031      C1032   1.403       .  A
C1031      C1036   1.395       .  A
C1031      H1038   1.084       .  S
C1032      C1033   1.410       .  A
C1033      C1034   1.396       .  A
C1033     Br1040   1.920       .  S
C1034      C1035   1.404       .  A
C1034      H1039   1.083       .  S
C1035      C1036   1.413       .  A
C1036     Br1037   1.924       .  S
C1041      C1042   1.405       .  A
C1041      C1046   1.410       .  A
C1041      H1048   1.084       .  S
C1042      C1043   1.413       .  A
C1043      C1044   1.401       .  A
C1043     Br1050   1.921       .  S
C1044      C1045   1.408       .  A
C1044      H1049   1.083       .  S
C1045      C1046   1.417       .  A
C1046     Br1047   1.912       .  S
C1051      C1052   1.402       .  A
C1051      C1056   1.400       .  A
C1051      H1058   1.084       .  S
C1052      C1053   1.413       .  A
C1053      C1054   1.401       .  A
C1053     Br1060   1.920       .  S
C1054      C1055   1.406       .  A
C1054      H1059   1.083       .  S
C1055      C1056   1.419       .  A
C1056     Br1057   1.924       .  S
C1061      C1062   1.413       .  A
C1061      C1066   1.403       .  A
C1061      H1068   1.077       .  S
C1062      C1063   1.418       .  A
C1063      C1064   1.409       .  A
C1063     Br1070   1.922       .  S
C1064      C1065   1.414       .  A
C1064      H1069   1.077       .  S
C1065      C1066   1.419       .  A
C1066     Br1067   1.925       .  S
C1071      C1072   1.405       .  A
C1071      C1076   1.407   1_455  A
C1071      H1078   1.082   1_565  S
C1072      C1073   1.410       .  A
C1073      C1074   1.405   1_455  A
C1073     Br1080   1.918       .  S
C1074      C1075   1.405       .  A
C1074      H1079   1.084       .  S
C1075      C1076   1.409       .  A
C1076     Br1077   1.916   1_565  S
C1081      C1082   1.400       .  A
C1081      C1086   1.401       .  A
C1081      H1088   1.084       .  S
C1082      C1083   1.413       .  A
C1083      C1084   1.400       .  A
C1083     Br1090   1.920       .  S
C1084      C1085   1.406       .  A
C1084      H1089   1.083       .  S
C1085      C1086   1.420       .  A
C1086     Br1087   1.922       .  S
C1091      C1092   1.408       .  A
C1091      C1096   1.405       .  A
C1091      H1098   1.082       .  S
C1092      C1093   1.415       .  A
C1093      C1094   1.396       .  A
C1093     Br1100   1.925       .  S
C1094      C1095   1.400       .  A
C1094      H1099   1.065       .  S
C1095      C1096   1.414       .  A
C1096     Br1097   1.917       .  S
C1101      C1102   1.412       .  A
C1101      C1106   1.403       .  A
C1101      H1108   1.077       .  S
C1102      C1103   1.421       .  A
C1103      C1104   1.409       .  A
C1103     Br1110   1.920       .  S
C1104      C1105   1.412       .  A
C1104      H1109   1.076       .  S
C1105      C1106   1.420       .  A
C1106     Br1107   1.922       .  S
C1111      C1112   1.402       .  A
C1111      C1116   1.404   1_655  A
C1111      H1118   1.067       .  S
C1112      C1113   1.413       .  A
C1113      C1114   1.405   1_655  A
C1113     Br1120   1.921       .  S
C1114      C1115   1.408       .  A
C1114      H1119   1.083       .  S
C1115      C1116   1.412       .  A
C1116     Br1117   1.915       .  S
C1121      C1122   1.406       .  A
C1121      C1126   1.406       .  A
C1121      H1128   1.084       .  S
C1122      C1123   1.408       .  A
C1123      C1124   1.398       .  A
C1123     Br1130   1.916       .  S
C1124      C1125   1.407       .  A
C1124      H1129   1.083       .  S
C1125      C1126   1.415       .  A
C1126     Br1127   1.920       .  S
C1131      C1132   1.411       .  A
C1131      C1136   1.405       .  A
C1131      H1138   1.076       .  S
C1132      C1133   1.416       .  A
C1133      C1134   1.399       .  A
C1133     Br1140   1.926       .  S
C1134      C1135   1.413       .  A
C1134      H1139   1.076       .  S
C1135      C1136   1.417       .  A
C1136     Br1137   1.916       .  S
C1141      C1142   1.413       .  A
C1141      C1146   1.403       .  A
C1141      H1148   1.077       .  S
C1142      C1143   1.423       .  A
C1143      C1144   1.413       .  A
C1143     Br1150   1.922       .  S
C1144      C1145   1.413       .  A
C1144      H1149   1.078       .  S
C1145      C1146   1.419       .  A
C1146     Br1147   1.927       .  S
C1151      C1152   1.410       .  A
C1151      C1156   1.404       .  A
C1151      H1158   1.083       .  S
C1152      C1153   1.420       .  A
C1153      C1154   1.407       .  A
C1153     Br1160   1.915       .  S
C1154      C1155   1.402       .  A
C1154      H1159   1.077       .  S
C1155      C1156   1.412       .  A
C1156     Br1157   1.920       .  S
C1161      C1162   1.406       .  A
C1161      C1166   1.396       .  A
C1161      H1168   1.084       .  S
C1162      C1163   1.410       .  A
C1163      C1164   1.401       .  A
C1163     Br1170   1.919       .  S
C1164      C1165   1.405       .  A
C1164      H1169   1.081       .  S
C1165      C1166   1.407       .  A
C1166     Br1167   1.920       .  S
C1171      C1172   1.405       .  A
C1171      C1176   1.404       .  A
C1171      H1178   1.083       .  S
C1172      C1173   1.416       .  A
C1173      C1174   1.398       .  A
C1173     Br1180   1.922       .  S
C1174      C1175   1.400       .  A
C1174      H1179   1.084       .  S
C1175      C1176   1.412       .  A
C1176     Br1177   1.912       .  S
C1181      C1182   1.400       .  A
C1181      C1186   1.402       .  A
C1181      H1188   1.084       .  S
C1182      C1183   1.410       .  A
C1183      C1184   1.402       .  A
C1183     Br1190   1.910       .  S
C1184      C1185   1.405       .  A
C1184      H1189   1.083       .  S
C1185      C1186   1.419       .  A
C1186     Br1187   1.921       .  S
C1191      C1192   1.409       .  A
C1191      C1196   1.397       .  A
C1191      H1198   1.083       .  S
C1192      C1193   1.416       .  A
C1193      C1194   1.409       .  A
C1193     Br1200   1.918       .  S
C1194      C1195   1.407       .  A
C1194      H1199   1.083       .  S
C1195      C1196   1.407       .  A
C1196     Br1197   1.918       .  S
C1201      C1202   1.406       .  A
C1201      C1206   1.394   1_655  A
C1201      H1208   1.083       .  S
C1202      C1203   1.414       .  A
C1203      C1204   1.397   1_655  A
C1203     Br1210   1.921       .  S
C1204      C1205   1.403       .  A
C1204      H1209   1.083       .  S
C1205      C1206   1.409       .  A
C1206     Br1207   1.921   1_554  S
C1211      C1212   1.405       .  A
C1211      C1216   1.401       .  A
C1211      H1218   1.083       .  S
C1212      C1213   1.416       .  A
C1213      C1214   1.398       .  A
C1213     Br1220   1.924       .  S
C1214      C1215   1.404       .  A
C1214      H1219   1.083       .  S
C1215      C1216   1.415       .  A
C1216     Br1217   1.919       .  S
C1221      C1222   1.411       .  A
C1221      C1226   1.408       .  A
C1221      H1228   1.083       .  S
C1222      C1223   1.416       .  A
C1223      C1224   1.398       .  A
C1223     Br1230   1.924       .  S
C1224      C1225   1.405       .  A
C1224      H1229   1.082       .  S
C1225      C1226   1.410       .  A
C1226     Br1227   1.917       .  S
C1231      C1232   1.405       .  A
C1231      C1236   1.403       .  A
C1231      H1238   1.083       .  S
C1232      C1233   1.413       .  A
C1233      C1234   1.399       .  A
C1233     Br1240   1.921       .  S
C1234      C1235   1.405       .  A
C1234      H1239   1.084       .  S
C1235      C1236   1.417       .  A
C1236     Br1237   1.923   1_554  S
C1241      C1242   1.405       .  A
C1241      C1246   1.401       .  A
C1241      H1248   1.083       .  S
C1242      C1243   1.419       .  A
C1243      C1244   1.398       .  A
C1243     Br1250   1.924       .  S
C1244      C1245   1.399       .  A
C1244      H1249   1.084       .  S
C1245      C1246   1.411       .  A
C1246     Br1247   1.920       .  S
C1251      C1252   1.400       .  A
C1251      C1256   1.399       .  A
C1251      H1258   1.081       .  S
C1252      C1253   1.414       .  A
C1253      C1254   1.407       .  A
C1253     Br1260   1.916       .  S
C1254      C1255   1.406       .  A
C1254      H1259   1.083       .  S
C1255      C1256   1.419       .  A
C1256     Br1257   1.925       .  S
C1261      C1262   1.407       .  A
C1261      C1266   1.401       .  A
C1261      H1268   1.083       .  S
C1262      C1263   1.417       .  A
C1263      C1264   1.405       .  A
C1263     Br1270   1.920       .  S
C1264      C1265   1.407       .  A
C1264      H1269   1.083       .  S
C1265      C1266   1.414       .  A
C1266     Br1267   1.922       .  S
C1271      C1272   1.402       .  A
C1271      C1276   1.394   1_455  A
C1271      H1278   1.084       .  S
C1272      C1273   1.410       .  A
C1273      C1274   1.395   1_455  A
C1273     Br1280   1.923       .  S
C1274      C1275   1.406       .  A
C1274      H1279   1.083       .  S
C1275      C1276   1.414       .  A
C1276     Br1277   1.923       .  S
C1281      C1282   1.412       .  A
C1281      C1286   1.405       .  A
C1281      H1288   1.083       .  S
C1282      C1283   1.417       .  A
C1283      C1284   1.399       .  A
C1283     Br1290   1.922       .  S
C1284      C1285   1.401       .  A
C1284      H1289   1.082       .  S
C1285      C1286   1.405       .  A
C1286     Br1287   1.917       .  S
C1291      C1292   1.405       .  A
C1291      C1296   1.405       .  A
C1291      H1298   1.083       .  S
C1292      C1293   1.420       .  A
C1293      C1294   1.397       .  A
C1293     Br1300   1.924       .  S
C1294      C1295   1.398       .  A
C1294      H1299   1.084       .  S
C1295      C1296   1.416       .  A
C1296     Br1297   1.919       .  S
C1301      C1302   1.406       .  A
C1301      C1306   1.402       .  A
C1301      H1308   1.083       .  S
C1302      C1303   1.414       .  A
C1303      C1304   1.403       .  A
C1303     Br1310   1.920       .  S
C1304      C1305   1.405       .  A
C1304      H1309   1.083       .  S
C1305      C1306   1.416       .  A
C1306     Br1307   1.922       .  S
C1311      C1312   1.396       .  A
C1311      C1316   1.399       .  A
C1311      H1318   1.085       .  S
C1312      C1313   1.408       .  A
C1313      C1314   1.409       .  A
C1313     Br1320   1.917       .  S
C1314      C1315   1.416       .  A
C1314      H1319   1.082       .  S
C1315      C1316   1.431       .  A
C1316     Br1317   1.918       .  S
C1321      C1322   1.403       .  A
C1321      C1326   1.396       .  A
C1321      H1328   1.084       .  S
C1322      C1323   1.411       .  A
C1323      C1324   1.395       .  A
C1323     Br1330   1.922       .  S
C1324      C1325   1.406       .  A
C1324      H1329   1.083       .  S
C1325      C1326   1.414       .  A
C1326     Br1327   1.922       .  S
C1331      C1332   1.406       .  A
C1331      C1336   1.406       .  A
C1331      H1338   1.083       .  S
C1332      C1333   1.420       .  A
C1333      C1334   1.401       .  A
C1333     Br1340   1.922       .  S
C1334      C1335   1.397       .  A
C1334      H1339   1.082       .  S
C1335      C1336   1.412       .  A
C1336     Br1337   1.920       .  S
C1341      C1342   1.405       .  A
C1341      C1346   1.398       .  A
C1341      H1348   1.083       .  S
C1342      C1343   1.413       .  A
C1343      C1344   1.391       .  A
C1343     Br1350   1.924       .  S
C1344      C1345   1.401       .  A
C1344      H1349   1.084       .  S
C1345      C1346   1.409       .  A
C1346     Br1347   1.920       .  S
C1351      C1352   1.406       .  A
C1351      C1356   1.403       .  A
C1351      H1358   1.083       .  S
C1352      C1353   1.416       .  A
C1353      C1354   1.405       .  A
C1353     Br1360   1.921       .  S
C1354      C1355   1.408       .  A
C1354      H1359   1.083       .  S
C1355      C1356   1.415       .  A
C1356     Br1357   1.921       .  S
C1361      C1362   1.406       .  A
C1361      C1366   1.407       .  A
C1361      H1368   1.083       .  S
C1362      C1363   1.413       .  A
C1363      C1364   1.401       .  A
C1363     Br1370   1.921       .  S
C1364      C1365   1.404       .  A
C1364      H1369   1.084       .  S
C1365      C1366   1.411       .  A
C1366     Br1367   1.917       .  S
C1371      C1372   1.410       .  A
C1371      C1376   1.400       .  A
C1371      H1378   1.074       .  S
C1372      C1373   1.421       .  A
C1373      C1374   1.405       .  A
C1373     Br1380   1.925       .  S
C1374      C1375   1.410       .  A
C1374      H1379   1.077       .  S
C1375      C1376   1.419       .  A
C1376     Br1377   1.927       .  S
C1381      C1382   1.404       .  A
C1381      C1386   1.402       .  A
C1381      H1388   1.082       .  S
C1382      C1383   1.411       .  A
C1383      C1384   1.401       .  A
C1383     Br1390   1.920       .  S
C1384      C1385   1.406       .  A
C1384      H1389   1.084       .  S
C1385      C1386   1.412       .  A
C1386     Br1387   1.920       .  S
C1391      C1392   1.405       .  A
C1391      C1396   1.402       .  A
C1391      H1398   1.084       .  S
C1392      C1393   1.412       .  A
C1393      C1394   1.407       .  A
C1393     Br1400   1.916       .  S
C1394      C1395   1.405       .  A
C1394      H1399   1.082       .  S
C1395      C1396   1.415       .  A
C1396     Br1397   1.921       .  S
C1401      C1402   1.398       .  A
C1401      C1406   1.399       .  A
C1401      H1408   1.084       .  S
C1402      C1403   1.415       .  A
C1403      C1404   1.403       .  A
C1403     Br1410   1.922       .  S
C1404      C1405   1.406       .  A
C1404      H1409   1.083       .  S
C1405      C1406   1.421       .  A
C1406     Br1407   1.922       .  S
C1411      C1412   1.411       .  A
C1411      C1416   1.400       .  A
C1411      H1418   1.078       .  S
C1412      C1413   1.417       .  A
C1413      C1414   1.404       .  A
C1413     Br1420   1.924       .  S
C1414      C1415   1.413       .  A
C1414      H1419   1.077       .  S
C1415      C1416   1.417       .  A
C1416     Br1417   1.924       .  S
C1421      C1422   1.405       .  A
C1421      C1426   1.407       .  A
C1421      H1428   1.082       .  S
C1422      C1423   1.413       .  A
C1423      C1424   1.400       .  A
C1423     Br1430   1.922       .  S
C1424      C1425   1.406       .  A
C1424      H1429   1.083       .  S
C1425      C1426   1.414       .  A
C1426     Br1427   1.916       .  S
C1431      C1432   1.409       .  A
C1431      C1436   1.408       .  A
C1431      H1438   1.078       .  S
C1432      C1433   1.420       .  A
C1433      C1434   1.398       .  A
C1433     Br1440   1.928       .  S
C1434      C1435   1.408       .  A
C1434      H1439   1.077       .  S
C1435      C1436   1.423       .  A
C1436     Br1437   1.924       .  S
C1441      C1442   1.409       .  A
C1441      C1446   1.399       .  A
C1441      H1448   1.083       .  S
C1442      C1443   1.416       .  A
C1443      C1444   1.402       .  A
C1443     Br1450   1.920       .  S
C1444      C1445   1.405       .  A
C1444      H1449   1.084       .  S
C1445      C1446   1.406       .  A
C1446     Br1447   1.916       .  S
C1451      C1452   1.413       .  A
C1451      C1456   1.412       .  A
C1451      H1458   1.078       .  S
C1452      C1453   1.419       .  A
C1453      C1454   1.400       .  A
C1453     Br1460   1.923       .  S
C1454      C1455   1.411       .  A
C1454      H1459   1.076       .  S
C1455      C1456   1.421       .  A
C1456     Br1457   1.921       .  S
C1461      C1462   1.408       .  A
C1461      C1466   1.409       .  A
C1461      H1468   1.083       .  S
C1462      C1463   1.411       .  A
C1463      C1464   1.397       .  A
C1463     Br1470   1.915       .  S
C1464      C1465   1.404       .  A
C1464      H1469   1.083       .  S
C1465      C1466   1.411       .  A
C1466     Br1467   1.916       .  S
C1471      C1472   1.406       .  A
C1471      C1476   1.406       .  A
C1471      H1478   1.083       .  S
C1472      C1473   1.406       .  A
C1473      C1474   1.395       .  A
C1473     Br1480   1.917       .  S
C1474      C1475   1.408       .  A
C1474      H1479   1.083       .  S
C1475      C1476   1.415       .  A
C1476     Br1477   1.919       .  S
C1481      C1482   1.408       .  A
C1481      C1486   1.395       .  A
C1481      H1488   1.083       .  S
C1482      C1483   1.413       .  A
C1483      C1484   1.405       .  A
C1483     Br1490   1.919       .  S
C1484      C1485   1.407       .  A
C1484      H1489   1.083       .  S
C1485      C1486   1.404       .  A
C1486     Br1487   1.918       .  S
C1491      C1492   1.406       .  A
C1491      C1496   1.392       .  A
C1491      H1498   1.084       .  S
C1492      C1493   1.414       .  A
C1493      C1494   1.407       .  A
C1493     Br1500   1.918       .  S
C1494      C1495   1.408       .  A
C1494      H1499   1.083       .  S
C1495      C1496   1.406       .  A
C1496     Br1497   1.916       .  S
C1501      C1502   1.405       .  A
C1501      C1506   1.395       .  A
C1501      H1508   1.084       .  S
C1502      C1503   1.414       .  A
C1503      C1504   1.398       .  A
C1503     Br1510   1.922       .  S
C1504      C1505   1.405       .  A
C1504      H1509   1.084       .  S
C1505      C1506   1.409       .  A
C1506     Br1507   1.920       .  S
C1511      C1512   1.409       .  A
C1511      C1516   1.404       .  A
C1511      H1518   1.083       .  S
C1512      C1513   1.412       .  A
C1513      C1514   1.399   1_565  A
C1513     Br1520   1.920       .  S
C1514      C1515   1.401       .  A
C1514      H1519   1.082       .  S
C1515      C1516   1.408   1_545  A
C1516     Br1517   1.919       .  S
C1521      C1522   1.405       .  A
C1521      C1526   1.401       .  A
C1521      H1528   1.083       .  S
C1522      C1523   1.415       .  A
C1523      C1524   1.402       .  A
C1523     Br1530   1.922       .  S
C1524      C1525   1.407       .  A
C1524      H1529   1.083       .  S
C1525      C1526   1.414       .  A
C1526     Br1527   1.920       .  S
C1531      C1532   1.405       .  A
C1531      C1536   1.402   1_565  A
C1531      H1538   1.083       .  S
C1532      C1533   1.419       .  A
C1533      C1534   1.402       .  A
C1533     Br1540   1.921       .  S
C1534      C1535   1.399   1_565  A
C1534      H1539   1.083       .  S
C1535      C1536   1.408       .  A
C1536     Br1537   1.915       .  S
C1541      C1542   1.405       .  A
C1541      C1546   1.398       .  A
C1541      H1548   1.083       .  S
C1542      C1543   1.412       .  A
C1543      C1544   1.403       .  A
C1543     Br1550   1.919       .  S
C1544      C1545   1.408       .  A
C1544      H1549   1.083       .  S
C1545      C1546   1.415       .  A
C1546     Br1547   1.923       .  S
C1551      C1552   1.406       .  A
C1551      C1556   1.398       .  A
C1551      H1558   1.083       .  S
C1552      C1553   1.415       .  A
C1553      C1554   1.396       .  A
C1553     Br1560   1.922       .  S
C1554      C1555   1.404       .  A
C1554      H1559   1.083       .  S
C1555      C1556   1.412       .  A
C1556     Br1557   1.922       .  S
C1561      C1562   1.404       .  A
C1561      C1566   1.401       .  A
C1561      H1568   1.083       .  S
C1562      C1563   1.417       .  A
C1563      C1564   1.402       .  A
C1563     Br1570   1.922       .  S
C1564      C1565   1.399       .  A
C1564      H1569   1.081       .  S
C1565      C1566   1.409       .  A
C1566     Br1567   1.913       .  S
C1571      C1572   1.411       .  A
C1571      C1576   1.407       .  A
C1571      H1578   1.083       .  S
C1572      C1573   1.416       .  A
C1573      C1574   1.396       .  A
C1573     Br1580   1.924       .  S
C1574      C1575   1.404       .  A
C1574      H1579   1.082       .  S
C1575      C1576   1.410       .  A
C1576     Br1577   1.918       .  S
C1581      C1582   1.410       .  A
C1581      C1586   1.402       .  A
C1581      H1588   1.083       .  S
C1582      C1583   1.414       .  A
C1583      C1584   1.399       .  A
C1583     Br1590   1.921       .  S
C1584      C1585   1.406       .  A
C1584      H1589   1.083       .  S
C1585      C1586   1.408       .  A
C1586     Br1587   1.917       .  S
C1591      C1592   1.398       .  A
C1591      C1596   1.398       .  A
C1591      H1598   1.084       .  S
C1592      C1593   1.412       .  A
C1593      C1594   1.405       .  A
C1593     Br1600   1.919       .  S
C1594      C1595   1.408       .  A
C1594      H1599   1.083       .  S
C1595      C1596   1.416       .  A
C1596     Br1597   1.909       .  S
C1601      C1602   1.405       .  A
C1601      C1606   1.399   1_455  A
C1601      H1608   1.083       .  S
C1602      C1603   1.412       .  A
C1603      C1604   1.403   1_455  A
C1603     Br1610   1.919       .  S
C1604      C1605   1.405       .  A
C1604      H1609   1.083       .  S
C1605      C1606   1.412       .  A
C1606     Br1607   1.921       .  S
C1611      C1612   1.406       .  A
C1611      C1616   1.398       .  A
C1611      H1618   1.084       .  S
C1612      C1613   1.413       .  A
C1613      C1614   1.404       .  A
C1613     Br1620   1.919       .  S
C1614      C1615   1.407       .  A
C1614      H1619   1.083       .  S
C1615      C1616   1.411       .  A
C1616     Br1617   1.916       .  S
C1621      C1622   1.403       .  A
C1621      C1626   1.402       .  A
C1621      H1628   1.084       .  S
C1622      C1623   1.403       .  A
C1623      C1624   1.400       .  A
C1623     Br1630   1.917       .  S
C1624      C1625   1.410       .  A
C1624      H1629   1.083       .  S
C1625      C1626   1.412       .  A
C1626     Br1627   1.918       .  S
C1631      C1632   1.404       .  A
C1631      C1636   1.399       .  A
C1631      H1638   1.084       .  S
C1632      C1633   1.412       .  A
C1633      C1634   1.394       .  A
C1633     Br1640   1.923       .  S
C1634      C1635   1.405       .  A
C1634      H1639   1.083       .  S
C1635      C1636   1.414       .  A
C1636     Br1637   1.922       .  S
C1641      C1642   1.409       .  A
C1641      C1646   1.401       .  A
C1641      H1648   1.083       .  S
C1642      C1643   1.421       .  A
C1643      C1644   1.401       .  A
C1643     Br1650   1.923       .  S
C1644      C1645   1.398       .  A
C1644      H1649   1.082       .  S
C1645      C1646   1.407       .  A
C1646     Br1647   1.920       .  S
C1651      C1652   1.411       .  A
C1651      C1656   1.405       .  A
C1651      H1658   1.083       .  S
C1652      C1653   1.415       .  A
C1653      C1654   1.401       .  A
C1653     Br1660   1.921       .  S
C1654      C1655   1.403       .  A
C1654      H1659   1.083       .  S
C1655      C1656   1.407       .  A
C1656     Br1657   1.917       .  S
C1661      C1662   1.405       .  A
C1661      C1666   1.403   1_655  A
C1661      H1668   1.083       .  S
C1662      C1663   1.412       .  A
C1663      C1664   1.398   1_655  A
C1663     Br1670   1.921       .  S
C1664      C1665   1.405       .  A
C1664      H1669   1.083       .  S
C1665      C1666   1.416       .  A
C1666     Br1667   1.921       .  S
C1671      C1672   1.403       .  A
C1671      C1676   1.396       .  A
C1671      H1678   1.083       .  S
C1672      C1673   1.412       .  A
C1673      C1674   1.395       .  A
C1673     Br1680   1.924       .  S
C1674      C1675   1.404       .  A
C1674      H1679   1.083       .  S
C1675      C1676   1.412       .  A
C1676     Br1677   1.922       .  S
C1681      C1682   1.398       .  A
C1681      C1686   1.398       .  A
C1681      H1688   1.084       .  S
C1682      C1683   1.412       .  A
C1683      C1684   1.403       .  A
C1683     Br1690   1.920       .  S
C1684      C1685   1.405       .  A
C1684      H1689   1.083       .  S
C1685      C1686   1.418       .  A
C1686     Br1687   1.924       .  S
C1691      C1692   1.406       .  A
C1691      C1696   1.402       .  A
C1691      H1698   1.084       .  S
C1692      C1693   1.411       .  A
C1693      C1694   1.405       .  A
C1693     Br1700   1.915       .  S
C1694      C1695   1.404       .  A
C1694      H1699   1.084       .  S
C1695      C1696   1.411       .  A
C1696     Br1697   1.920       .  S
C1701      C1702   1.407       .  A
C1701      C1706   1.398       .  A
C1701      H1708   1.083       .  S
C1702      C1703   1.417       .  A
C1703      C1704   1.406       .  A
C1703     Br1710   1.919       .  S
C1704      C1705   1.406       .  A
C1704      H1709   1.084       .  S
C1705      C1706   1.409       .  A
C1706     Br1707   1.916       .  S
C1711      C1712   1.411       .  A
C1711      C1716   1.402       .  A
C1711      H1718   1.077       .  S
C1712      C1713   1.418       .  A
C1713      C1714   1.402       .  A
C1713     Br1720   1.925       .  S
C1714      C1715   1.412       .  A
C1714      H1719   1.075       .  S
C1715      C1716   1.417       .  A
C1716     Br1717   1.924       .  S
C1721      C1722   1.395       .  A
C1721      C1726   1.398       .  A
C1721      H1728   1.082       .  S
C1722      C1723   1.408       .  A
C1723      C1724   1.401       .  A
C1723     Br1730   1.921       .  S
C1724      C1725   1.407       .  A
C1724      H1729   1.083       .  S
C1725      C1726   1.419       .  A
C1726     Br1727   1.922       .  S
C1731      C1732   1.403       .  A
C1731      C1736   1.403       .  A
C1731      H1738   1.083       .  S
C1732      C1733   1.412       .  A
C1733      C1734   1.402       .  A
C1733     Br1740   1.917       .  S
C1734      C1735   1.410       .  A
C1734      H1739   1.083       .  S
C1735      C1736   1.418       .  A
C1736     Br1737   1.911       .  S
C1741      C1742   1.400       .  A
C1741      C1746   1.401       .  A
C1741      H1748   1.082       .  S
C1742      C1743   1.407       .  A
C1743      C1744   1.405       .  A
C1743     Br1750   1.919       .  S
C1744      C1745   1.411       .  A
C1744      H1749   1.083       .  S
C1745      C1746   1.416       .  A
C1746     Br1747   1.920       .  S
C1751      C1752   1.402       .  A
C1751      C1756   1.402       .  A
C1751      H1758   1.084       .  S
C1752      C1753   1.416       .  A
C1753      C1754   1.404       .  A
C1753     Br1760   1.920       .  S
C1754      C1755   1.407       .  A
C1754      H1759   1.083       .  S
C1755      C1756   1.420       .  A
C1756     Br1757   1.923       .  S
C1761      C1762   1.413       .  A
C1761      C1766   1.409       .  A
C1761      H1768   1.077       .  S
C1762      C1763   1.419       .  A
C1763      C1764   1.404       .  A
C1763     Br1770   1.926       .  S
C1764      C1765   1.413       .  A
C1764      H1769   1.076       .  S
C1765      C1766   1.420       .  A
C1766     Br1767   1.924       .  S
C1771      C1772   1.406       .  A
C1771      C1776   1.401       .  A
C1771      H1778   1.083       .  S
C1772      C1773   1.417       .  A
C1773      C1774   1.412       .  A
C1773     Br1780   1.916   1_565  S
C1774      C1775   1.410       .  A
C1774      H1779   1.076       .  S
C1775      C1776   1.417       .  A
C1776     Br1777   1.915       .  S
C1781      C1782   1.409       .  A
C1781      C1786   1.410       .  A
C1781      H1788   1.083       .  S
C1782      C1783   1.411       .  A
C1783      C1784   1.399       .  A
C1783     Br1790   1.913       .  S
C1784      C1785   1.405       .  A
C1784      H1789   1.083       .  S
C1785      C1786   1.417       .  A
C1786     Br1787   1.920       .  S
C1791      C1792   1.410       .  A
C1791      C1796   1.403       .  A
C1791      H1798   1.079       .  S
C1792      C1793   1.420       .  A
C1793      C1794   1.406       .  A
C1793     Br1800   1.925       .  S
C1794      C1795   1.412       .  A
C1794      H1799   1.076       .  S
C1795      C1796   1.419       .  A
C1796     Br1797   1.922       .  S
C1801      C1802   1.411       .  A
C1801      C1806   1.401       .  A
C1801      H1808   1.083       .  S
C1802      C1803   1.417       .  A
C1803      C1804   1.400       .  A
C1803     Br1810   1.921       .  S
C1804      C1805   1.400       .  A
C1804      H1809   1.082       .  S
C1805      C1806   1.404       .  A
C1806     Br1807   1.918       .  S
C1811      C1812   1.413       .  A
C1811      C1816   1.405       .  A
C1811      H1818   1.075       .  S
C1812      C1813   1.420       .  A
C1813      C1814   1.405       .  A
C1813     Br1820   1.921       .  S
C1814      C1815   1.412       .  A
C1814      H1819   1.074       .  S
C1815      C1816   1.420       .  A
C1816     Br1817   1.921       .  S
C1821      C1822   1.404       .  A
C1821      C1826   1.406       .  A
C1821      H1828   1.073       .  S
C1822      C1823   1.413       .  A
C1823      C1824   1.403       .  A
C1823     Br1830   1.921       .  S
C1824      C1825   1.409       .  A
C1824      H1829   1.083       .  S
C1825      C1826   1.416       .  A
C1826     Br1827   1.916       .  S
C1831      C1832   1.405       .  A
C1831      C1836   1.404       .  A
C1831      H1838   1.083       .  S
C1832      C1833   1.414       .  A
C1833      C1834   1.394       .  A
C1833     Br1840   1.924       .  S
C1834      C1835   1.397       .  A
C1834      H1839   1.074       .  S
C1835      C1836   1.413       .  A
C1836     Br1837   1.915       .  S
C1841      C1842   1.408       .  A
C1841      C1846   1.404       .  A
C1841      H1848   1.083       .  S
C1842      C1843   1.421       .  A
C1843      C1844   1.402       .  A
C1843     Br1850   1.923       .  S
C1844      C1845   1.401       .  A
C1844      H1849   1.084       .  S
C1845      C1846   1.411       .  A
C1846     Br1847   1.917       .  S
C1851      C1852   1.411       .  A
C1851      C1856   1.411       .  A
C1851      H1858   1.083       .  S
C1852      C1853   1.413       .  A
C1853      C1854   1.397       .  A
C1853     Br1860   1.924       .  S
C1854      C1855   1.406       .  A
C1854      H1859   1.077       .  S
C1855      C1856   1.417       .  A
C1856     Br1857   1.920       .  S
C1861      C1862   1.407       .  A
C1861      C1866   1.404       .  A
C1861      H1868   1.083       .  S
C1862      C1863   1.420       .  A
C1863      C1864   1.398       .  A
C1863     Br1870   1.925       .  S
C1864      C1865   1.397       .  A
C1864      H1869   1.078       .  S
C1865      C1866   1.413       .  A
C1866     Br1867   1.917       .  S
C1871      C1872   1.412       .  A
C1871      C1876   1.404       .  A
C1871      H1878   1.083       .  S
C1872      C1873   1.417       .  A
C1873      C1874   1.400       .  A
C1873     Br1880   1.921       .  S
C1874      C1875   1.401       .  A
C1874      H1879   1.083       .  S
C1875      C1876   1.406       .  A
C1876     Br1877   1.918       .  S
C1881      C1882   1.407       .  A
C1881      C1886   1.401   1_655  A
C1881      H1888   1.083       .  S
C1882      C1883   1.418       .  A
C1883      C1884   1.406   1_655  A
C1883     Br1890   1.921       .  S
C1884      C1885   1.405       .  A
C1884      H1889   1.083       .  S
C1885      C1886   1.412       .  A
C1886     Br1887   1.921       .  S
C1891      C1892   1.412       .  A
C1891      C1896   1.402       .  A
C1891      H1898   1.083       .  S
C1892      C1893   1.416       .  A
C1893      C1894   1.403       .  A
C1893     Br1900   1.920       .  S
C1894      C1895   1.401       .  A
C1894      H1899   1.084       .  S
C1895      C1896   1.403       .  A
C1896     Br1897   1.919       .  S
C1901      C1902   1.410       .  A
C1901      C1906   1.408       .  A
C1901      H1908   1.083       .  S
C1902      C1903   1.413       .  A
C1903      C1904   1.400       .  A
C1903     Br1910   1.921       .  S
C1904      C1905   1.403       .  A
C1904      H1909   1.083       .  S
C1905      C1906   1.411       .  A
C1906     Br1907   1.919       .  S
C1911      C1912   1.405       .  A
C1911      C1916   1.394       .  A
C1911      H1918   1.083       .  S
C1912      C1913   1.414       .  A
C1913      C1914   1.395       .  A
C1913     Br1920   1.922       .  S
C1914      C1915   1.402       .  A
C1914      H1919   1.084       .  S
C1915      C1916   1.410       .  A
C1916     Br1917   1.923       .  S
C1921      C1922   1.407       .  A
C1921      C1926   1.403       .  A
C1921      H1928   1.083       .  S
C1922      C1923   1.410       .  A
C1923      C1924   1.399       .  A
C1923     Br1930   1.919       .  S
C1924      C1925   1.404       .  A
C1924      H1929   1.081       .  S
C1925      C1926   1.410       .  A
C1926     Br1927   1.920       .  S
C1931      C1932   1.411       .  A
C1931      C1936   1.405       .  A
C1931      H1938   1.083       .  S
C1932      C1933   1.414       .  A
C1933      C1934   1.400       .  A
C1933     Br1940   1.920       .  S
C1934      C1935   1.403       .  A
C1934      H1939   1.083       .  S
C1935      C1936   1.406       .  A
C1936     Br1937   1.917       .  S
C1941      C1942   1.398       .  A
C1941      C1946   1.395       .  A
C1941      H1948   1.084       .  S
C1942      C1943   1.405       .  A
C1943      C1944   1.392       .  A
C1943     Br1950   1.922       .  S
C1944      C1945   1.406       .  A
C1944      H1949   1.083       .  S
C1945      C1946   1.416       .  A
C1946     Br1947   1.923       .  S
C1951      C1952   1.405       .  A
C1951      C1956   1.405   1_655  A
C1951      H1958   1.083       .  S
C1952      C1953   1.412       .  A
C1953      C1954   1.400   1_655  A
C1953     Br1960   1.920       .  S
C1954      C1955   1.406       .  A
C1954      H1959   1.083       .  S
C1955      C1956   1.416       .  A
C1956     Br1957   1.920       .  S
C1961      C1962   1.408       .  A
C1961      C1966   1.400       .  A
C1961      H1968   1.083       .  S
C1962      C1963   1.413       .  A
C1963      C1964   1.400       .  A
C1963     Br1970   1.920       .  S
C1964      C1965   1.401       .  A
C1964      H1969   1.084       .  S
C1965      C1966   1.405       .  A
C1966     Br1967   1.919       .  S
C1971      C1972   1.398       .  A
C1971      C1976   1.396       .  A
C1971      H1978   1.084       .  S
C1972      C1973   1.410       .  A
C1973      C1974   1.408       .  A
C1973     Br1980   1.919       .  S
C1974      C1975   1.415       .  A
C1974      H1979   1.083       .  S
C1975      C1976   1.426       .  A
C1976     Br1977   1.919       .  S
C1981      C1982   1.399       .  A
C1981      C1986   1.397       .  A
C1981      H1988   1.084       .  S
C1982      C1983   1.410       .  A
C1983      C1984   1.400       .  A
C1983     Br1990   1.920       .  S
C1984      C1985   1.408       .  A
C1984      H1989   1.083       .  S
C1985      C1986   1.416       .  A
C1986     Br1987   1.910       .  S
C1991      C1992   1.410       .  A
C1991      C1996   1.400       .  A
C1991      H1998   1.083       .  S
C1992      C1993   1.416       .  A
C1993      C1994   1.407       .  A
C1993     Br2000   1.919       .  S
C1994      C1995   1.404       .  A
C1994      H1999   1.083       .  S
C1995      C1996   1.404       .  A
C1996     Br1997   1.917       .  S
C2001      C2002   1.402       .  A
C2001      C2006   1.395       .  A
C2001      H2008   1.084       .  S
C2002      C2003   1.410       .  A
C2003      C2004   1.393       .  A
C2003     Br2010   1.922       .  S
C2004      C2005   1.402       .  A
C2004      H2009   1.084       .  S
C2005      C2006   1.410       .  A
C2006     Br2007   1.921       .  S
C2011      C2012   1.407       .  A
C2011      C2016   1.398       .  A
C2011      H2018   1.083       .  S
C2012      C2013   1.417       .  A
C2013      C2014   1.406       .  A
C2013     Br2020   1.920       .  S
C2014      C2015   1.406       .  A
C2014      H2019   1.083       .  S
C2015      C2016   1.410       .  A
C2016     Br2017   1.917       .  S
C2021      C2022   1.404       .  A
C2021      C2026   1.402       .  A
C2021      H2028   1.083       .  S
C2022      C2023   1.415       .  A
C2023      C2024   1.401       .  A
C2023     Br2030   1.921       .  S
C2024      C2025   1.400       .  A
C2024      H2029   1.084       .  S
C2025      C2026   1.408       .  A
C2026     Br2027   1.914   1_545  S
C2031      C2032   1.404       .  A
C2031      C2036   1.401       .  A
C2031      H2038   1.084       .  S
C2032      C2033   1.409       .  A
C2033      C2034   1.400       .  A
C2033     Br2040   1.919       .  S
C2034      C2035   1.407       .  A
C2034      H2039   1.083       .  S
C2035      C2036   1.418       .  A
C2036     Br2037   1.923       .  S
C2041      C2042   1.408       .  A
C2041      C2046   1.393       .  A
C2041      H2048   1.083       .  S
C2042      C2043   1.416       .  A
C2043      C2044   1.405       .  A
C2043     Br2050   1.919       .  S
C2044      C2045   1.404       .  A
C2044      H2049   1.083       .  S
C2045      C2046   1.402       .  A
C2046     Br2047   1.913       .  S
C2051      C2052   1.407       .  A
C2051      C2056   1.405       .  A
C2051      H2058   1.083       .  S
C2052      C2053   1.420       .  A
C2053      C2054   1.397       .  A
C2053     Br2060   1.925       .  S
C2054      C2055   1.397       .  A
C2054      H2059   1.077       .  S
C2055      C2056   1.416       .  A
C2056     Br2057   1.919   1_545  S
C2061      C2062   1.406       .  A
C2061      C2066   1.399       .  A
C2061      H2068   1.083       .  S
C2062      C2063   1.417       .  A
C2063      C2064   1.404       .  A
C2063     Br2070   1.922       .  S
C2064      C2065   1.406       .  A
C2064      H2069   1.083       .  S
C2065      C2066   1.412       .  A
C2066     Br2067   1.921       .  S
C2071      C2072   1.407       .  A
C2071      C2076   1.394       .  A
C2071      H2078   1.083       .  S
C2072      C2073   1.416       .  A
C2073      C2074   1.398       .  A
C2073     Br2080   1.921       .  S
C2074      C2075   1.402       .  A
C2074      H2079   1.084       .  S
C2075      C2076   1.407       .  A
C2076     Br2077   1.921       .  S
