geometry optimzed in LAMMPS
_audit_creation_date              2020-11-30 
_audit_creation_method            'lammps2cif' 
_symmetry_space_group_name_H-M    'P1' 
_symmetry_Int_Tables_number       1 
_symmetry_cell_setting            triclinic 
loop_ 
_symmetry_equiv_pos_as_xyz 
  x,y,z 
_cell_length_a                    54.14959773 
_cell_length_b                    54.42726342733892 
_cell_length_c                    54.82412528371598 
_cell_angle_alpha                 90.02944353530222 
_cell_angle_beta                  89.61173482781776 
_cell_angle_gamma                 90.04243464639312 
loop_ 
_atom_site_label 
_atom_site_type_symbol 
_atom_site_fract_x 
_atom_site_fract_y 
_atom_site_fract_z 
_atom_site_charge 
N1          N  0.42020366  0.31998138  0.75427648    -0.26300
N2          N  0.40920190  0.30021768  0.76327528    -0.34200
C3          C  0.40807434  0.30199772  0.78770465     0.02000
C4          C  0.41906485  0.32378168  0.79458424     0.08000
C5          C  0.42662624  0.33477446  0.77295580    -0.05100
H6          H  0.40022045  0.28817664  0.79962563     0.08700
H7          H  0.43582805  0.35231068  0.77092022     0.09900
Cu8        Cu  0.39760604  0.27059962  0.74259069     0.44200
Cu9        Cu  0.42492694  0.32588546  0.71678899     0.42000
Cu10       Cu  0.40290437  0.27585655  0.67785723     0.43900
N11         N  0.39292655  0.24107559  0.71926422    -0.33700
N12         N  0.39530693  0.24280904  0.69532764    -0.28000
C13         C  0.39484205  0.22007626  0.68562202    -0.04100
C14         C  0.39206833  0.20328495  0.70443637     0.08200
C15         C  0.39077110  0.21727098  0.72545865     0.01900
H16         H  0.39784014  0.21604704  0.66651085     0.09600
H17         H  0.39014370  0.21055693  0.74401818     0.08700
N18         N  0.41432637  0.30991878  0.66485509    -0.35200
N19         N  0.42344917  0.32766284  0.67866185    -0.27300
C20         C  0.42988609  0.34670902  0.66421996    -0.02600
C21         C  0.42412841  0.34079893  0.64034133     0.06000
C22         C  0.41431537  0.31736112  0.64144805     0.04100
H23         H  0.43758656  0.36383241  0.67069117     0.09200
H24         H  0.40788338  0.30637457  0.62632405     0.08100
N25         N  0.42840592  0.36569527  0.97768244    -0.02500
C26         C  0.44251427  0.36921914  0.95742721     0.00100
C27         C  0.46475350  0.37983218  0.96391810    -0.22800
C28         C  0.46430336  0.38261094  0.98892200    -0.23000
C29         C  0.44167223  0.37389874  0.99683157     0.00000
H30         H  0.47967330  0.38512858  0.95177834     0.13800
H31         H  0.47847631  0.39104627  0.99995655     0.13800
N32         N  0.43266465  0.47438541  0.25539350    -0.26300
N33         N  0.43847168  0.49757717  0.25990856    -0.34200
C34         C  0.44307325  0.50017852  0.28383892     0.02000
C35         C  0.43971257  0.47770915  0.29512838     0.08000
C36         C  0.43302921  0.46175614  0.27658188    -0.05100
H37         H  0.44779663  0.51741843  0.29251407     0.08700
H38         H  0.42881625  0.44239718  0.27834526     0.09900
Cu39       Cu  0.43781432  0.52570647  0.23426794     0.44200
Cu40       Cu  0.42418985  0.46129644  0.22046953     0.42000
Cu41       Cu  0.40810869  0.51009147  0.17846715     0.43900
N42         N  0.43132058  0.55119407  0.20683498    -0.33700
N43         N  0.41936061  0.54544529  0.18669455    -0.28000
C44         C  0.41740953  0.56554130  0.17261170    -0.04100
C45         C  0.42879294  0.58489706  0.18441261     0.08200
C46         C  0.43749431  0.57517238  0.20603800     0.01900
H47         H  0.40883569  0.56585957  0.15485660     0.09600
H48         H  0.44737553  0.58481487  0.22019099     0.08700
N49         N  0.40619823  0.47316498  0.16979920    -0.35200
N50         N  0.41395240  0.45527833  0.18416366    -0.27300
C51         C  0.41468709  0.43423528  0.17113395    -0.02600
C52         C  0.40646194  0.43916972  0.14774104     0.06000
C53         C  0.40119227  0.46397620  0.14763351     0.04100
H54         H  0.42142508  0.41684811  0.17793039     0.09200
H55         H  0.39610934  0.47495701  0.13201429     0.08100
N56         N  0.44597830  0.43087335  0.47759199    -0.02500
C57         C  0.46111742  0.44047247  0.46020738     0.00100
C58         C  0.48474130  0.44309378  0.46918034    -0.22800
C59         C  0.48412622  0.43495394  0.49293462    -0.18200
C60         C  0.46007209  0.42771204  0.49770348     0.00000
H61         H  0.50070233  0.45020663  0.45951169     0.13800
H62         H  0.49959077  0.43442802  0.50531716     0.13800
N63         N  0.01644095  0.01543920  0.46397920    -0.26300
N64         N  0.99293623  0.01789518  0.47048807    -0.34200
C65         C  0.98812228  0.04186992  0.47443632     0.02000
C66         C  0.00934184  0.05531683  0.46985662     0.08000
C67         C  0.02692409  0.03796102  0.46322595    -0.05100
H68         H  0.97020483  0.04908950  0.47953398     0.08700
H69         H  0.04597565  0.04144271  0.45824654     0.09900
Cu70       Cu  0.96700023  0.98936639  0.47150318     0.44200
Cu71       Cu  0.03363023  0.98155715  0.45616388     0.42000
Cu72       Cu  0.98997077  0.93430132  0.44410788     0.43900
N73         N  0.94480246  0.95856511  0.46529166    -0.33700
N74         N  0.95364284  0.93882442  0.45425773    -0.28000
C75         C  0.93549009  0.92236932  0.45126883    -0.04100
C76         C  0.91400488  0.93205187  0.46088553     0.08200
C77         C  0.92050723  0.95502046  0.46979898     0.01900
H78         H  0.93786437  0.90458059  0.44275903     0.09600
H79         H  0.90837981  0.96837676  0.47828247     0.08700
N80         N  0.02741818  0.92868012  0.44143898    -0.35200
N81         N  0.04407864  0.94527526  0.44757066    -0.27300
C82         C  0.06642175  0.93419122  0.44813597    -0.02600
C83         C  0.06344825  0.90966292  0.44158978     0.06000
C84         C  0.03849068  0.90699443  0.43742317     0.04100
H85         H  0.08337081  0.94304889  0.45367139     0.09200
H86         H  0.02875838  0.89004892  0.43370539     0.08100
N87         N  0.03343229  0.24331326  0.46915588    -0.02500
C88         C  0.02553900  0.22623732  0.48548511     0.00100
C89         C  0.02511410  0.23617479  0.50870055    -0.22800
C90         C  0.03312637  0.26014372  0.50655051    -0.23000
C91         C  0.03829490  0.26399461  0.48213868     0.00000
H92         H  0.02019330  0.22683141  0.52546260     0.13800
H93         H  0.03548562  0.27316035  0.52128280     0.13800
N94         N  0.14527481  0.44426160  0.46268803    -0.26300
N95         N  0.16338645  0.42834701  0.45874493    -0.34200
C96         C  0.15367842  0.40585269  0.45529325     0.02000
C97         C  0.12830398  0.40736520  0.45759754     0.08000
C98         C  0.12357910  0.43198861  0.46232880    -0.05100
H99         H  0.16444321  0.38930478  0.45269616     0.08700
H100        H  0.10573752  0.44028433  0.46574102     0.09900
Cu101      Cu  0.20087719  0.43608150  0.46224844     0.44200
Cu102      Cu  0.15091407  0.48193559  0.46962910     0.42000
Cu103      Cu  0.21136480  0.49347882  0.49239845     0.43900
N104        N  0.23563306  0.44732168  0.47385565    -0.33700
N105        N  0.23890200  0.46815080  0.48579751    -0.28000
C106        C  0.26295001  0.47096301  0.49078845    -0.04100
C107        C  0.27559132  0.45092678  0.48158817     0.08200
C108        C  0.25771947  0.43620148  0.47099910     0.01900
H109        H  0.27066836  0.48684441  0.49986084     0.09600
H110        H  0.26060379  0.41898588  0.46154582     0.08700
N111        N  0.18526781  0.52078672  0.48894013    -0.35200
N112        N  0.16334933  0.51735049  0.47903047    -0.27300
C113        C  0.15245638  0.53951475  0.47622467    -0.02600
C114        C  0.16833827  0.55751441  0.48504820     0.06000
C115        C  0.18880808  0.54485820  0.49305492     0.04100
H116        H  0.13451754  0.54234735  0.46812611     0.09200
H117        H  0.20562032  0.55268487  0.50028671     0.08100
N118        N  0.14929688  0.74520714  0.47222691    -0.02500
C119        C  0.15618236  0.72931897  0.49007891     0.00100
C120        C  0.15858051  0.74157189  0.51199276    -0.22800
C121        C  0.15281142  0.76574202  0.50761863    -0.23000
C122        C  0.14707541  0.76763448  0.48311054     0.00000
H123        H  0.16351178  0.73371433  0.52942232     0.13800
H124        H  0.15250367  0.78028973  0.52107157     0.13800
N125        N  0.23406128  0.75557613  0.58546542    -0.26300
N126        N  0.24279497  0.73817345  0.59986332    -0.34200
C127        C  0.24607162  0.74755804  0.62233396     0.02000
C128        C  0.23879063  0.77191318  0.62216048     0.08000
C129        C  0.23121595  0.77638794  0.59850474    -0.05100
H130        H  0.25267536  0.73722777  0.63782749     0.08700
H131        H  0.22433767  0.79352408  0.59123918     0.09900
Cu132      Cu  0.24838097  0.70198819  0.58870116     0.44200
Cu133      Cu  0.22751738  0.75038571  0.54846317     0.42000
Cu134      Cu  0.24290355  0.69013006  0.52408875     0.43900
N135        N  0.24929382  0.66688063  0.57354710    -0.33700
N136        N  0.24738639  0.66257382  0.54988962    -0.28000
C137        C  0.24696948  0.63812734  0.54612078    -0.04100
C138        C  0.24858950  0.62647982  0.56850822     0.08200
C139        C  0.25008724  0.64526444  0.58545478     0.01900
H140        H  0.24475255  0.62954368  0.52847995     0.09600
H141        H  0.25093828  0.64337061  0.60507435     0.08700
N142        N  0.23414912  0.72025635  0.50255825    -0.35200
N143        N  0.22722706  0.74178518  0.51148511    -0.27300
C144        C  0.22166572  0.75687513  0.49287356    -0.02600
C145        C  0.22565667  0.74434763  0.47124665     0.06000
C146        C  0.23355507  0.72121846  0.47803651     0.04100
H147        H  0.21569205  0.77572310  0.49494163     0.09200
H148        H  0.23815650  0.70607589  0.46606432     0.08100
N149        N  0.21161598  0.79666469  0.29169343    -0.02500
C150        C  0.19612994  0.79230654  0.31069535     0.00100
C151        C  0.17189203  0.79430131  0.30325895    -0.22800
C152        C  0.17256483  0.79953345  0.27866719    -0.23000
C153        C  0.19718830  0.80104238  0.27213895     0.00000
H154        H  0.15551390  0.79227794  0.31447267     0.13800
H155        H  0.15684336  0.80311214  0.26712482     0.13800
N156        N  0.20635967  0.90331856  0.01021365    -0.26300
N157        N  0.20994799  0.92588336  0.00193126    -0.34200
C158        C  0.21356243  0.92505466  0.97766579     0.02000
C159        C  0.21194561  0.90088805  0.97022987     0.08000
C160        C  0.20725867  0.88755639  0.99127152    -0.05100
H161        H  0.21683973  0.94094766  0.96624706     0.08700
H162        H  0.20515752  0.86784546  0.99278778     0.09900
Cu163      Cu  0.20920210  0.95721987  0.02335634     0.44200
Cu164      Cu  0.20168114  0.89500004  0.04706608     0.42000
Cu165      Cu  0.19880975  0.94932270  0.08683546     0.43900
N166        N  0.20578434  0.98655804  0.04718548    -0.33700
N167        N  0.20140613  0.98388584  0.07076654    -0.28000
C168        C  0.20026743  0.00630007  0.08122987    -0.04100
C169        C  0.20429003  0.02380080  0.06326352     0.08200
C170        C  0.20771722  0.01060406  0.04197329     0.01900
H171        H  0.19734153  0.00955337  0.10049688     0.09600
H172        H  0.21151327  0.01794119  0.02400288     0.08700
N173        N  0.19911037  0.91311493  0.09909378    -0.35200
N174        N  0.19983222  0.89334347  0.08502130    -0.27300
C175        C  0.20088789  0.87318462  0.09931970    -0.02600
C176        C  0.20107636  0.88077229  0.12344776     0.06000
C177        C  0.19990103  0.90609270  0.12255116     0.04100
H178        H  0.20240713  0.85454024  0.09262781     0.09200
H179        H  0.20017320  0.91860234  0.13788058     0.08100
N180        N  0.22711869  0.85929129  0.78738167    -0.02500
C181        C  0.21161888  0.85679491  0.80673889     0.00100
C182        C  0.18846704  0.84976450  0.79893003    -0.22800
C183        C  0.18976837  0.84801805  0.77389334    -0.23000
C184        C  0.21377025  0.85369672  0.76731906     0.00000
H185        H  0.17242061  0.84608109  0.81023220     0.13800
H186        H  0.17526084  0.84161687  0.76197894     0.13800
N187        N  0.73194476  0.75126661  0.74027792    -0.26300
N188        N  0.72096657  0.73003093  0.74475133    -0.34200
C189        C  0.71439149  0.72897217  0.76836813     0.02000
C190        C  0.72206838  0.75030198  0.77955818     0.08000
C191        C  0.73313405  0.76414248  0.76127032    -0.05100
H192        H  0.70638359  0.71300690  0.77713131     0.08700
H193        H  0.74196275  0.78185484  0.76320188     0.09900
Cu194      Cu  0.72116405  0.70095538  0.72070303     0.44200
Cu195      Cu  0.74576107  0.76009877  0.70572385     0.42000
Cu196      Cu  0.75942195  0.70620468  0.66735977     0.43900
N197        N  0.73289259  0.67104970  0.70067285    -0.33700
N198        N  0.74813829  0.67233208  0.68178586    -0.28000
C199        C  0.75353371  0.64923611  0.67440681    -0.04100
C200        C  0.74085118  0.63287322  0.68935995     0.08200
C201        C  0.72803133  0.64743163  0.70574073     0.01900
H202        H  0.76551809  0.64471150  0.65919765     0.09600
H203        H  0.71640805  0.64134014  0.72070216     0.08700
N204        N  0.76243579  0.74274845  0.65563589    -0.35200
N205        N  0.75650760  0.76212961  0.66908191    -0.27300
C206        C  0.75739589  0.78240433  0.65494055    -0.02600
C207        C  0.76453048  0.77552269  0.63159131     0.06000
C208        C  0.76769441  0.75032010  0.63279057     0.04100
H209        H  0.75262171  0.80070119  0.66107108     0.09200
H210        H  0.77210767  0.73816997  0.61776206     0.08100
N211        N  0.72541236  0.78850979  0.96217921    -0.02500
C212        C  0.70894969  0.77736503  0.94723933     0.00100
C213        C  0.68638896  0.77474042  0.95903511    -0.22800
C214        C  0.68903261  0.78460953  0.98192752    -0.23000
C215        C  0.71294778  0.79315617  0.98324262     0.00000
H216        H  0.66960928  0.76695989  0.95173846     0.13800
H217        H  0.67494539  0.78573618  0.99596967     0.13800
N218        N  0.76486668  0.90200890  0.23735964    -0.26300
N219        N  0.77090331  0.92410505  0.24546826    -0.34200
C220        C  0.77273844  0.92333943  0.26992301     0.02000
C221        C  0.76743615  0.89973616  0.27764871     0.08000
C222        C  0.76253345  0.88667528  0.25651742    -0.05100
H223        H  0.77692140  0.93904231  0.28132269     0.08700
H224        H  0.75742264  0.86750896  0.25514034     0.09900
Cu225      Cu  0.77409153  0.95502380  0.22341581     0.44200
Cu226      Cu  0.75982301  0.89371585  0.20060021     0.42000
Cu227      Cu  0.76874430  0.94522901  0.15926296     0.43900
N228        N  0.77074997  0.98345604  0.19836880    -0.33700
N229        N  0.76879874  0.97975458  0.17464703    -0.28000
C230        C  0.76390647  0.00121861  0.16354404    -0.04100
C231        C  0.76262752  0.01931547  0.18116734     0.08200
C232        C  0.76716509  0.00744939  0.20303752     0.01900
H233        H  0.76017632  0.00322132  0.14429694     0.09600
H234        H  0.76658377  0.01536149  0.22113113     0.08700
N235        N  0.76236308  0.90970083  0.14798570    -0.35200
N236        N  0.75813451  0.89092421  0.16274360    -0.27300
C237        C  0.75290429  0.87096652  0.14915600    -0.02600
C238        C  0.75406363  0.87769084  0.12480588     0.06000
C239        C  0.76014055  0.90227291  0.12477814     0.04100
H240        H  0.74851712  0.85301622  0.15646549     0.09200
H241        H  0.76219762  0.91411061  0.10904194     0.08100
N242        N  0.76049421  0.85545994  0.46077383    -0.02500
C243        C  0.74678885  0.85226483  0.44038650     0.00100
C244        C  0.72438549  0.84163837  0.44641285    -0.22800
C245        C  0.72430279  0.83834838  0.47135704    -0.23000
C246        C  0.74676032  0.84683414  0.47970125     0.00000
H247        H  0.70974502  0.83666666  0.43400636     0.13800
H248        H  0.70999122  0.82945070  0.48203601     0.13800
N249        N  0.51304827  0.16283200  0.04818970    -0.26300
N250        N  0.52903054  0.15574945  0.03122491    -0.34200
C251        C  0.55139993  0.15299433  0.04133536     0.02000
C252        C  0.54967864  0.15879916  0.06580698     0.08000
C253        C  0.52506590  0.16495564  0.06959879    -0.05100
H254        H  0.56801007  0.14832383  0.03129903     0.08700
H255        H  0.51666863  0.17117631  0.08646506     0.09900
Cu256      Cu  0.52149635  0.15412281  0.99421129     0.44200
Cu257      Cu  0.47595831  0.17066331  0.04059800     0.42000
Cu258      Cu  0.46454827  0.18266397  0.97650654     0.43900
N259        N  0.51363746  0.16344554  0.95842016    -0.33700
N260        N  0.49347119  0.17554480  0.95221117    -0.28000
C261        C  0.49512344  0.18167922  0.92846569    -0.04100
C262        C  0.51725892  0.17275868  0.91927318     0.08200
C263        C  0.52845084  0.16115764  0.93871435     0.01900
H264        H  0.48121916  0.19184347  0.91862343     0.09600
H265        H  0.54648699  0.15264596  0.93880552     0.08700
N266        N  0.43702158  0.18355568  0.00330083    -0.35200
N267        N  0.44084467  0.17825307  0.02653245    -0.27300
C268        C  0.41897663  0.17872335  0.03850418    -0.02600
C269        C  0.40061031  0.18491188  0.02210728     0.06000
C270        C  0.41278414  0.18789857  0.00000358     0.04100
H271        H  0.41663509  0.17503083  0.05776700     0.09200
H272        H  0.40454143  0.19233739  0.98262045     0.08100
N273        N  0.21588714  0.19423195  0.06967024    -0.02500
C274        C  0.23278918  0.20914456  0.05865920     0.00100
C275        C  0.22277279  0.23213568  0.05476174    -0.22800
C276        C  0.19899994  0.23146596  0.06383777    -0.23000
C277        C  0.19529025  0.20808860  0.07301385     0.00000
H278        H  0.23185168  0.24778899  0.04645534     0.13800
H279        H  0.18589271  0.24646695  0.06389514     0.13800
N280        N  0.93732654  0.20756849  0.19563649    -0.26300
N281        N  0.93155401  0.21733943  0.21703820    -0.34200
C282        C  0.90695294  0.21783421  0.21977697     0.02000
C283        C  0.89634808  0.20772657  0.19929589     0.08000
C284        C  0.91611465  0.20130452  0.18428425    -0.05100
H285        H  0.89752954  0.22471478  0.23583947     0.08700
H286        H  0.91513234  0.19289465  0.16643355     0.09900
Cu287      Cu  0.95614002  0.22863037  0.24325408     0.44200
Cu288      Cu  0.97421243  0.20360620  0.18369250     0.42000
Cu289      Cu  0.01886403  0.21772387  0.23233471     0.43900
N290        N  0.98251744  0.23630090  0.26902639    -0.33700
N291        N  0.00624855  0.23259097  0.26487615    -0.28000
C292        C  0.01890611  0.23780441  0.28526492    -0.04100
C293        C  0.00214310  0.24476957  0.30314236     0.08200
C294        C  0.97925625  0.24355426  0.29225170     0.01900
H295        H  0.03855628  0.23502694  0.28740646     0.09600
H296        H  0.96147226  0.24661898  0.30086165     0.08700
N297        N  0.02839004  0.20535545  0.19780139    -0.35200
N298        N  0.01291987  0.20154917  0.17956738    -0.27300
C299        C  0.02632773  0.19641639  0.15928594    -0.02600
C300        C  0.05120906  0.19656323  0.16533631     0.06000
C301        C  0.05168292  0.20219864  0.18986686     0.04100
H302        H  0.01857999  0.19292233  0.14147732     0.09200
H303        H  0.06787706  0.20495310  0.20097250     0.08100
N304        N  0.71261258  0.18100743  0.15938380    -0.02500
C305        C  0.72680462  0.19881533  0.16948548     0.00100
C306        C  0.71312228  0.21984039  0.17349595    -0.22800
C307        C  0.68959178  0.21486254  0.16560513    -0.23000
C308        C  0.68973977  0.19097862  0.15705021     0.00000
H309        H  0.71954486  0.23692979  0.18132558     0.13800
H310        H  0.67406296  0.22737348  0.16593976     0.13800
N311        N  0.70701490  0.05494683  0.58619328    -0.26300
N312        N  0.71464308  0.05957607  0.56367918    -0.34200
C313        C  0.73938352  0.05734174  0.56262313     0.02000
C314        C  0.74763595  0.05079360  0.58549627     0.08000
C315        C  0.72667125  0.04936807  0.59997438    -0.05100
H316        H  0.75047243  0.06011891  0.54639238     0.08700
H317        H  0.72578115  0.04507080  0.61922313     0.09900
Cu318      Cu  0.69128806  0.06884692  0.53534326     0.44200
Cu319      Cu  0.67047621  0.05742673  0.59779548     0.42000
Cu320      Cu  0.62794834  0.07980545  0.55244148     0.43900
N321        N  0.66407103  0.07787569  0.51051959    -0.33700
N322        N  0.64081988  0.08194322  0.51680191    -0.28000
C323        C  0.62737518  0.08507233  0.49649699    -0.04100
C324        C  0.64293390  0.08293323  0.47651121     0.08200
C325        C  0.66608781  0.07847831  0.48606415     0.01900
H326        H  0.60755089  0.08752361  0.49627593     0.09600
H327        H  0.68288693  0.07451576  0.47600295     0.08700
N328        N  0.61784419  0.07176493  0.58809799    -0.35200
N329        N  0.63307153  0.06282882  0.60462546    -0.27300
C330        C  0.62020435  0.05799507  0.62521238    -0.02600
C331        C  0.59577818  0.06436621  0.62136107     0.06000
C332        C  0.59500636  0.07305194  0.59771700     0.04100
H333        H  0.62801894  0.05026482  0.64161498     0.09200
H334        H  0.57886545  0.07920431  0.58794859     0.08100
N335        N  0.93009018  0.03625661  0.63177417    -0.02500
C336        C  0.91055285  0.02074701  0.63168886     0.00100
C337        C  0.91713631  0.99851619  0.64192123    -0.22800
C338        C  0.94168369  0.00046562  0.64821322    -0.23000
C339        C  0.94906225  0.02391578  0.64188546     0.00000
H340        H  0.90528313  0.98276822  0.64490839     0.13800
H341        H  0.95253860  0.98677012  0.65760364     0.13800
N342        N  0.13156835  0.04522138  0.74003652    -0.26300
N343        N  0.11687422  0.04897954  0.75908751    -0.34200
C344        C  0.09362934  0.05235231  0.75114975     0.02000
C345        C  0.09364533  0.05015639  0.72602441     0.08000
C346        C  0.11795546  0.04560677  0.71960814    -0.05100
H347        H  0.07766931  0.05456384  0.76290589     0.08700
H348        H  0.12514745  0.04211893  0.70147649     0.09900
Cu349      Cu  0.12763165  0.04445325  0.79521771     0.44200
Cu350      Cu  0.16918400  0.03762604  0.74200330     0.42000
Cu351      Cu  0.18442471  0.01020631  0.79826348     0.43900
N352        N  0.14128999  0.02948380  0.82736738    -0.33700
N353        N  0.16144037  0.01580611  0.82772060    -0.28000
C354        C  0.16524041  0.00759871  0.85043117    -0.04100
C355        C  0.14662549  0.01652917  0.86525460     0.08200
C356        C  0.13172537  0.03041438  0.85012049     0.01900
H357        H  0.18069318  0.99626578  0.85574174     0.09600
H358        H  0.11505655  0.04014724  0.85517869     0.08700
N359        N  0.20977955  0.01456961  0.77055930    -0.35200
N360        N  0.20483812  0.02610145  0.74998786    -0.27300
C361        C  0.22601972  0.02895290  0.73723043    -0.02600
C362        C  0.24499491  0.01847870  0.75049774     0.06000
C363        C  0.23398437  0.00949938  0.77145928     0.04100
H364        H  0.22755682  0.03829252  0.71986803     0.09200
H365        H  0.24303866  0.00102957  0.78685076     0.08100
N366        N  0.42887664  0.03665944  0.70713838    -0.02500
C367        C  0.41414790  0.01856471  0.71609183     0.00100
C368        C  0.42748967  0.99723527  0.71937662    -0.22800
C369        C  0.45129465  0.00230581  0.71213212    -0.23000
C370        C  0.45171928  0.02658128  0.70479430     0.00000
H371        H  0.42064529  0.97984672  0.72621591     0.13800
H372        H  0.46666532  0.98960907  0.71215282     0.13800
N373        N  0.00289719  0.71795746  0.01380019    -0.26300
N374        N  0.98316697  0.71227002  0.00088822    -0.34200
C375        C  0.98010247  0.68783170  0.00064216     0.02000
C376        C  0.99842696  0.67727433  0.01444683     0.08000
C377        C  0.01260296  0.69689389  0.02269511    -0.05100
H378        H  0.96519958  0.67846174  0.99143962     0.08700
H379        H  0.02903962  0.69587159  0.03375165     0.09900
Cu380      Cu  0.95903851  0.73736516  0.98633887     0.44200
Cu381      Cu  0.01508253  0.75465060  0.01693195     0.42000
Cu382      Cu  0.96792279  0.80024823  0.00008060     0.43900
N383        N  0.93173192  0.76313965  0.98172703    -0.33700
N384        N  0.93427797  0.78640558  0.98805261    -0.28000
C385        C  0.91234348  0.79778869  0.98552324    -0.04100
C386        C  0.89539205  0.78072153  0.97705285     0.08200
C387        C  0.90837117  0.75905095  0.97476513     0.01900
H388        H  0.90896606  0.81691077  0.98975954     0.09600
H389        H  0.90110996  0.74131338  0.96948760     0.08700
N390        N  0.00372058  0.80909089  0.01070763    -0.35200
N391        N  0.02077085  0.79308021  0.01748785    -0.27300
C392        C  0.04148644  0.80561892  0.02340478    -0.02600
C393        C  0.03729225  0.83054909  0.01972005     0.06000
C394        C  0.01323034  0.83190960  0.01163121     0.04100
H395        H  0.05853230  0.79718541  0.02925172     0.09200
H396        H  0.00327513  0.84839670  0.00674381     0.08100
N397        N  0.02916499  0.49138735  0.01733916    -0.02500
C398        C  0.02221979  0.50774690  0.03490580     0.00100
C399        C  0.02193628  0.49629584  0.05745082    -0.22800
C400        C  0.02897452  0.47229646  0.05369635    -0.23000
C401        C  0.03381152  0.46988460  0.02907602     0.00000
H402        H  0.01765494  0.50462849  0.07489829     0.13800
H403        H  0.03146224  0.45843298  0.06760966     0.13800
N404        N  0.14318515  0.29121834  0.00287360    -0.26300
N405        N  0.15994771  0.30699389  0.99488393    -0.34200
C406        C  0.14991445  0.32942837  0.99309655     0.02000
C407        C  0.12555853  0.32809831  0.00040270     0.08000
C408        C  0.12177180  0.30353964  0.00652046    -0.05100
H409        H  0.15990551  0.34572410  0.98751315     0.08700
H410        H  0.10487526  0.29534664  0.01335402     0.09900
Cu411      Cu  0.19646707  0.29861223  0.98884829     0.44200
Cu412      Cu  0.15197626  0.25386382  0.00799798     0.42000
Cu413      Cu  0.21796125  0.23772515  0.99553359     0.43900
N414        N  0.23335211  0.28982492  0.98856003    -0.33700
N415        N  0.24182530  0.26729172  0.99143990    -0.28000
C416        C  0.26671545  0.26803299  0.99169440    -0.04100
C417        C  0.27396566  0.29230283  0.98875606     0.08200
C418        C  0.25236379  0.30551311  0.98681878     0.01900
H419        H  0.27850150  0.25221833  0.99391147     0.09600
H420        H  0.25054637  0.32518365  0.98464563     0.08700
N421        N  0.18997156  0.21248827  0.00230039    -0.35200
N422        N  0.16679766  0.21802940  0.00800559    -0.27300
C423        C  0.15467817  0.19698754  0.01320832    -0.02600
C424        C  0.17084216  0.17746786  0.01038665     0.06000
C425        C  0.19294905  0.18795986  0.00326944     0.04100
H426        H  0.13546665  0.19594390  0.01864649     0.09200
H427        H  0.21023088  0.17856899  0.99991130     0.08100
N428        N  0.13261075  0.99412324  0.03250209    -0.02500
C429        C  0.13773230  0.01267808  0.04819033     0.00100
C430        C  0.13747715  0.00395997  0.07185996    -0.22800
C431        C  0.13228701  0.97916187  0.07055510    -0.23000
C432        C  0.12903605  0.97360221  0.04617094     0.00000
H433        H  0.14068681  0.01447278  0.08829550     0.13800
H434        H  0.12986204  0.96683199  0.08586698     0.13800
N435        N  0.46486191  0.47687154  0.56956590    -0.26300
N436        N  0.45972060  0.47956007  0.54610073    -0.34200
C437        C  0.43549224  0.47559543  0.54271353     0.02000
C438        C  0.42472383  0.47050151  0.56499745     0.08000
C439        C  0.44373662  0.47166287  0.58169593    -0.05100
H440        H  0.42633300  0.47675194  0.52530469     0.08700
H441        H  0.44242797  0.46839961  0.60112448     0.09900
Cu442      Cu  0.48466914  0.48883656  0.51866099     0.44200
Cu443      Cu  0.50044576  0.47898935  0.58431883     0.42000
Cu444      Cu  0.54539499  0.49808439  0.53990168     0.43900
N445        N  0.51343326  0.49858758  0.49538020    -0.33700
N446        N  0.53613292  0.50122716  0.50361034    -0.28000
C447        C  0.55127127  0.50697983  0.48501422    -0.04100
C448        C  0.53742401  0.50842630  0.46399334     0.08200
C449        C  0.51341596  0.50310665  0.47118061     0.01900
H450        H  0.57082192  0.51053963  0.48684254     0.09600
H451        H  0.49723097  0.50246157  0.45972151     0.08700
N452        N  0.55378392  0.49190991  0.57601041    -0.35200
N453        N  0.53795858  0.48345552  0.59243990    -0.27300
C454        C  0.55032732  0.47901485  0.61331700    -0.02600
C455        C  0.57489969  0.48552684  0.60974755     0.06000
C456        C  0.57628784  0.49365675  0.58594068     0.04100
H457        H  0.54210604  0.47161212  0.62978384     0.09200
H458        H  0.59269357  0.49943016  0.57615093     0.08100
N459        N  0.23986275  0.45924476  0.60339045    -0.02500
C460        C  0.25664928  0.44388649  0.59315452     0.00100
C461        C  0.24729714  0.42035549  0.59148033    -0.22800
C462        C  0.22379442  0.42120379  0.60119861    -0.23000
C463        C  0.21977058  0.44521008  0.60842282     0.00000
H464        H  0.25680131  0.40421479  0.58473427     0.13800
H465        H  0.21129743  0.40583463  0.60346480     0.13800
N466        N  0.96668821  0.46561611  0.73432965    -0.26300
N467        N  0.95885013  0.47799170  0.75365085    -0.34200
C468        C  0.93411744  0.47909542  0.75341967     0.02000
C469        C  0.92585776  0.46635092  0.73336000     0.08000
C470        C  0.94692378  0.45791516  0.72158914    -0.05100
H471        H  0.92292263  0.48768043  0.76744231     0.08700
H472        H  0.94785667  0.44731189  0.70490810     0.09900
Cu473      Cu  0.98106913  0.48988331  0.78169627     0.44200
Cu474      Cu  0.00399712  0.46116172  0.72605726     0.42000
Cu475      Cu  0.04537562  0.47769973  0.77554413     0.43900
N476        N  0.00492074  0.49120455  0.81084581    -0.33700
N477        N  0.02859480  0.48570620  0.80878679    -0.28000
C478        C  0.03864966  0.48541565  0.83114877    -0.04100
C479        C  0.02038079  0.49110726  0.84802819     0.08200
C480        C  0.99926613  0.49477707  0.83451049     0.01900
H481        H  0.05774532  0.48101424  0.83482973     0.09600
H482        H  0.98093703  0.49875242  0.84141793     0.08700
N483        N  0.05721372  0.46923839  0.74040432    -0.35200
N484        N  0.04228336  0.46269236  0.72252837    -0.27300
C485        C  0.05585122  0.45842061  0.70229740    -0.02600
C486        C  0.08045343  0.46263557  0.70768604     0.06000
C487        C  0.08060754  0.46949052  0.73196367     0.04100
H488        H  0.04827789  0.45307098  0.68486989     0.09200
H489        H  0.09655472  0.47435641  0.74272421     0.08100
N490        N  0.74020523  0.46168165  0.69425706    -0.02500
C491        C  0.75859253  0.44534789  0.69884877     0.00100
C492        C  0.74920915  0.42175647  0.69968270    -0.22800
C493        C  0.72421822  0.42356125  0.69585176    -0.23000
C494        C  0.71917345  0.44820861  0.69239368     0.00000
H495        H  0.75943476  0.40500686  0.70293027     0.13800
H496        H  0.71134277  0.40839300  0.69475488     0.13800
N497        N  0.14748651  0.74080789  0.17538087    -0.26300
N498        N  0.13305125  0.73889926  0.19484183    -0.34200
C499        C  0.10948234  0.73652000  0.18770732     0.02000
C500        C  0.10894777  0.73713807  0.16252489     0.08000
C501        C  0.13333170  0.73998630  0.15526967    -0.05100
H502        H  0.09389924  0.73462753  0.20001606     0.08700
H503        H  0.14030805  0.74097840  0.13674815     0.09900
Cu504      Cu  0.14565562  0.73897571  0.23035476     0.44200
Cu505      Cu  0.18586278  0.74274760  0.17751720     0.42000
Cu506      Cu  0.21018805  0.72948488  0.23859510     0.43900
N507        N  0.16156450  0.73552271  0.26434290    -0.33700
N508        N  0.18523739  0.73076007  0.26756982    -0.28000
C509        C  0.18959744  0.72879160  0.29166742    -0.04100
C510        C  0.16760387  0.73282586  0.30406215     0.08200
C511        C  0.15026562  0.73709038  0.28617627     0.01900
H512        H  0.20754220  0.72553337  0.29957762     0.09600
H513        H  0.13086267  0.74103287  0.28879607     0.08700
N514        N  0.23186550  0.73428980  0.20748417    -0.35200
N515        N  0.22333204  0.74007827  0.18565356    -0.27300
C516        C  0.24258675  0.74298805  0.17020664    -0.02600
C517        C  0.26416627  0.73856753  0.18286839     0.06000
C518        C  0.25665484  0.73313274  0.20641491     0.04100
H519        H  0.24097469  0.74774877  0.15112987     0.09200
H520        H  0.26833464  0.72904715  0.22180408     0.08100
N521        N  0.44570950  0.74534913  0.12872125    -0.02500
C522        C  0.42629866  0.76097874  0.12806493     0.00100
C523        C  0.43396590  0.78390700  0.12027144    -0.22800
C524        C  0.45904602  0.78222952  0.11604447    -0.23000
C525        C  0.46571472  0.75824927  0.12104162     0.00000
H526        H  0.42259012  0.80005650  0.11787860     0.13800
H527        H  0.47085339  0.79659037  0.10884866     0.13800
N528        N  0.72506045  0.73344957  0.00815858    -0.26300
N529        N  0.73348564  0.72362277  0.98763848    -0.34200
C530        C  0.75825164  0.72524785  0.98716885     0.02000
C531        C  0.76587380  0.73710968  0.00805095     0.08000
C532        C  0.74437910  0.74203348  0.02102542    -0.05100
H533        H  0.76988590  0.71831410  0.97260506     0.08700
H534        H  0.74293117  0.75044751  0.03885480     0.09900
Cu535      Cu  0.71153789  0.70881168  0.96046738     0.44200
Cu536      Cu  0.68791185  0.73240505  0.01886998     0.42000
Cu537      Cu  0.64804067  0.70055894  0.97673025     0.43900
N538        N  0.68495614  0.69818637  0.93553625    -0.33700
N539        N  0.66149526  0.69541361  0.94170970    -0.28000
C540        C  0.64831260  0.69039494  0.92164711    -0.04100
C541        C  0.66426783  0.68992548  0.90183950     0.08200
C542        C  0.68736543  0.69485368  0.91129704     0.01900
H543        H  0.62855039  0.68792682  0.92148662     0.09600
H544        H  0.70456779  0.69680499  0.90115983     0.08700
N545        N  0.63682372  0.71151515  0.01118369    -0.35200
N546        N  0.65081854  0.72433542  0.02623587    -0.27300
C547        C  0.63719076  0.73051047  0.04597591    -0.02600
C548        C  0.61364108  0.72087347  0.04320613     0.06000
C549        C  0.61415426  0.70887944  0.02101340     0.04100
H550        H  0.64386075  0.74138481  0.06108596     0.09200
H551        H  0.59886520  0.69981601  0.01214314     0.08100
N552        N  0.94684415  0.73994058  0.06463455    -0.02500
C553        C  0.93010834  0.75619883  0.05585689     0.00100
C554        C  0.93966842  0.77971308  0.05624054    -0.22800
C555        C  0.96335390  0.77785559  0.06498191    -0.23000
C556        C  0.96720050  0.75333590  0.07025062     0.00000
H557        H  0.93035678  0.79642814  0.05086736     0.13800
H558        H  0.97614633  0.79285585  0.06784022     0.13800
N559        N  0.50642438  0.77415444  0.33033548    -0.26300
N560        N  0.48524819  0.76266677  0.32647938    -0.34200
C561        C  0.48900830  0.73826940  0.32637071     0.02000
C562        C  0.51379227  0.73393028  0.33012499     0.08000
C563        C  0.52433181  0.75706831  0.33261160    -0.05100
H564        H  0.47480597  0.72476600  0.32288374     0.08700
H565        H  0.54367163  0.76117071  0.33528311     0.09900
Cu566      Cu  0.45210974  0.77965501  0.31902634     0.44200
Cu567      Cu  0.50976237  0.81274457  0.33106769     0.42000
Cu568      Cu  0.45026512  0.84409774  0.32085901     0.43900
N569        N  0.42059719  0.79904898  0.31061126    -0.33700
N570        N  0.41942387  0.82323249  0.31188374    -0.28000
C571        C  0.39623556  0.83040430  0.30660488    -0.04100
C572        C  0.38232716  0.80961804  0.30160620     0.08200
C573        C  0.39843180  0.79011144  0.30426327     0.01900
H574        H  0.38990418  0.84923853  0.30673501     0.09600
H575        H  0.39418822  0.77073030  0.30256411     0.08700
N576        N  0.48376234  0.86187235  0.32667851    -0.35200
N577        N  0.50546781  0.85123118  0.33002578    -0.27300
C578        C  0.52291660  0.86901561  0.33160538    -0.02600
C579        C  0.51153901  0.89177011  0.32905381     0.06000
C580        C  0.48678458  0.88633048  0.32606616     0.04100
H581        H  0.54244449  0.86563457  0.33388112     0.09200
H582        H  0.47191554  0.89919872  0.32306038     0.08100
N583        N  0.60044499  0.56455023  0.31590474    -0.02500
C584        C  0.59879499  0.58732010  0.30588150     0.00100
C585        C  0.61558174  0.58965958  0.28689220    -0.22800
C586        C  0.62811254  0.56779745  0.28526829    -0.23000
C587        C  0.61859799  0.55280002  0.30333179     0.00000
H588        H  0.61908979  0.60593852  0.27607251     0.13800
H589        H  0.64294082  0.56350174  0.27263943     0.13800
N590        N  0.68348766  0.27605758  0.29852529    -0.26300
N591        N  0.70449586  0.26359529  0.29839063    -0.34200
C592        C  0.69944049  0.23940638  0.29918805     0.02000
C593        C  0.67412103  0.23638158  0.29956270     0.08000
C594        C  0.66453725  0.25997429  0.29902093    -0.05100
H595        H  0.71323608  0.22505796  0.29956808     0.08700
H596        H  0.64524933  0.26511041  0.29971796     0.09900
Cu597      Cu  0.73956237  0.27918881  0.29754463     0.44200
Cu598      Cu  0.68120520  0.31439612  0.30018731     0.42000
Cu599      Cu  0.74018101  0.34401281  0.30713100     0.43900
N600        N  0.77196335  0.29965725  0.29818213    -0.33700
N601        N  0.77190054  0.32349762  0.30271699    -0.28000
C602        C  0.79516915  0.33197555  0.30208205    -0.04100
C603        C  0.81068523  0.31264254  0.29658116     0.08200
C604        C  0.79542468  0.29233581  0.29419106     0.01900
H605        H  0.80031370  0.35101570  0.30461648     0.09600
H606        H  0.80089391  0.27373797  0.28975221     0.08700
N607        N  0.70710276  0.36279973  0.30726537    -0.35200
N608        N  0.68523310  0.35234139  0.30467291    -0.27300
C609        C  0.66775631  0.37001856  0.30521974    -0.02600
C610        C  0.67939766  0.39254830  0.30813034     0.06000
C611        C  0.70425925  0.38720747  0.30930683     0.04100
H612        H  0.64815646  0.36674672  0.30327679     0.09200
H613        H  0.71927260  0.40015055  0.31134551     0.08100
N614        N  0.59357738  0.06451244  0.31559132    -0.02500
C615        C  0.59524250  0.08371036  0.29978407     0.00100
C616        C  0.58085406  0.07936906  0.27954364    -0.22800
C617        C  0.56994011  0.05682629  0.28291803    -0.23000
C618        C  0.57793904  0.04810428  0.30514748     0.00000
H619        H  0.57789305  0.09169542  0.26435720     0.13800
H620        H  0.55696461  0.04803349  0.27077234     0.13800
N621        N  0.68322283  0.45920662  0.74845959    -0.26300
N622        N  0.70373623  0.46878201  0.75733437    -0.34200
C623        C  0.70138189  0.49330422  0.75866145     0.02000
C624        C  0.67840434  0.49956769  0.74992285     0.08000
C625        C  0.66739668  0.47758511  0.74339303    -0.05100
H626        H  0.71574252  0.50571461  0.76461649     0.08700
H627        H  0.64921905  0.47511336  0.73566934     0.09900
Cu628      Cu  0.73516195  0.44881456  0.76476046     0.44200
Cu629      Cu  0.67804376  0.42145096  0.74452933     0.42000
Cu630      Cu  0.73352567  0.38407707  0.75451953     0.43900
N631        N  0.76644021  0.42720218  0.76496032    -0.33700
N632        N  0.76625212  0.40336913  0.76038846    -0.28000
C633        C  0.78970326  0.39505405  0.76050468    -0.04100
C634        C  0.80522824  0.41464135  0.76556274     0.08200
C635        C  0.78981346  0.43469381  0.76828009     0.01900
H636        H  0.79503192  0.37616728  0.75733229     0.09600
H637        H  0.79516130  0.45348151  0.77199536     0.08700
N638        N  0.69811169  0.36978107  0.74977240    -0.35200
N639        N  0.67817278  0.38314875  0.74553759    -0.27300
C640        C  0.65848589  0.36808575  0.74382252    -0.02600
C641        C  0.66634045  0.34417762  0.74742473     0.06000
C642        C  0.69154518  0.34596147  0.75112970     0.04100
H643        H  0.63970493  0.37418087  0.74102264     0.09200
H644        H  0.70419266  0.33107532  0.75484532     0.08100
N645        N  0.62257993  0.67852680  0.73825724    -0.02500
C646        C  0.62563320  0.66048553  0.72145349     0.00100
C647        C  0.61882241  0.66901462  0.69867173    -0.22800
C648        C  0.61154874  0.69308358  0.70166699    -0.23000
C649        C  0.61373590  0.69833014  0.72618731     0.00000
H650        H  0.61905049  0.65890798  0.68167549     0.13800
H651        H  0.60483297  0.70524038  0.68757788     0.13800
N652        N  0.50964950  0.95966405  0.75632332    -0.26300
N653        N  0.48703832  0.96783673  0.76069390    -0.34200
C654        C  0.48736435  0.99252870  0.76145930     0.02000
C655        C  0.51125808  0.00040347  0.75713161     0.08000
C656        C  0.52489952  0.97911495  0.75381721    -0.05100
H657        H  0.47134323  0.00387084  0.76506583     0.08700
H658        H  0.54459894  0.97784394  0.75065104     0.09900
Cu659      Cu  0.45659678  0.94541664  0.76633151     0.44200
Cu660      Cu  0.51892989  0.92231295  0.75657506     0.42000
Cu661      Cu  0.46955928  0.88197701  0.77817265     0.43900
N662        N  0.42927644  0.91967477  0.77338844    -0.33700
N663        N  0.43411335  0.89653759  0.77887879    -0.28000
C664        C  0.41270433  0.88463261  0.78303971    -0.04100
C665        C  0.39351621  0.90100844  0.77966126     0.08200
C666        C  0.40465832  0.92305006  0.77350000     0.01900
H667        H  0.41119582  0.86532553  0.78746771     0.09600
H668        H  0.39559899  0.94028514  0.76952979     0.08700
N669        N  0.50539753  0.87025833  0.77107784    -0.35200
N670        N  0.52310890  0.88446387  0.76210478    -0.27300
C671        C  0.54319170  0.87048702  0.75758754    -0.02600
C672        C  0.53786860  0.84647469  0.76429110     0.06000
C673        C  0.51382234  0.84707961  0.77282789     0.04100
H674        H  0.56031711  0.87726812  0.74984027     0.09200
H675        H  0.50287077  0.83159657  0.77891511     0.08100
N676        N  0.56888768  0.18149828  0.75769970    -0.02500
C677        C  0.56632432  0.16178671  0.74275814     0.00100
C678        C  0.56944473  0.16869221  0.71871035    -0.22800
C679        C  0.57392606  0.19356439  0.71880562    -0.23000
C680        C  0.57356857  0.20096345  0.74292644     0.00000
H681        H  0.56862272  0.15689729  0.70283645     0.13800
H682        H  0.57840922  0.20477251  0.70308306     0.13800
N683        N  0.97242798  0.29706247  0.49826936    -0.26300
N684        N  0.96393651  0.27523559  0.49176533    -0.34200
C685        C  0.96498938  0.27303561  0.46741269     0.02000
C686        C  0.97521827  0.29415096  0.45796439     0.08000
C687        C  0.97984929  0.30907460  0.47795837    -0.05100
H688        H  0.95861434  0.25720753  0.45734155     0.08700
H689        H  0.98701595  0.32763711  0.47765477     0.09900
Cu690      Cu  0.95123449  0.24871857  0.51543778     0.44200
Cu691      Cu  0.97012472  0.31011252  0.53427135     0.42000
Cu692      Cu  0.93403930  0.26929559  0.57408679     0.43900
N693        N  0.93932378  0.22502033  0.54223163    -0.33700
N694        N  0.93184928  0.23284082  0.56383818    -0.28000
C695        C  0.92625243  0.21336794  0.57786317    -0.04100
C696        C  0.93073062  0.19233195  0.56444565     0.08200
C697        C  0.93901500  0.20032964  0.54190741     0.01900
H698        H  0.92076812  0.21441962  0.59684952     0.09600
H699        H  0.94504746  0.18913572  0.52669820     0.08700
N700        N  0.94572807  0.30406335  0.58387343    -0.35200
N701        N  0.96009073  0.31843536  0.57041794    -0.27300
C702        C  0.96661018  0.33810918  0.58395702    -0.02600
C703        C  0.95555623  0.33599978  0.60676452     0.06000
C704        C  0.94245095  0.31425705  0.60595850     0.04100
H705        H  0.97876521  0.35265128  0.57779981     0.09200
H706        H  0.93236728  0.30571483  0.62079135     0.08100
N707        N  0.97982629  0.33032837  0.27404700    -0.02500
C708        C  0.99673966  0.32493435  0.29136160     0.00100
C709        C  0.02027604  0.32671888  0.28161865    -0.22800
C710        C  0.01766340  0.33308237  0.25744365    -0.23000
C711        C  0.99263768  0.33543793  0.25338216     0.00000
H712        H  0.03750277  0.32403420  0.29114548     0.13800
H713        H  0.03245407  0.33680597  0.24458687     0.13800
N714        N  0.96812357  0.45207661  0.99975914    -0.26300
N715        N  0.95874643  0.47337425  0.99294676    -0.34200
C716        C  0.95678511  0.47396366  0.96859123     0.02000
C717        C  0.96573331  0.45215007  0.95927108     0.08000
C718        C  0.97282159  0.43858568  0.97953951    -0.05100
H719        H  0.95034221  0.48965999  0.95841805     0.08700
H720        H  0.98077093  0.42035481  0.97956936     0.09900
Cu721      Cu  0.95220397  0.50249019  0.01607760     0.44200
Cu722      Cu  0.97261140  0.44361583  0.03676925     0.42000
Cu723      Cu  0.95920104  0.49568327  0.07950628     0.43900
N724        N  0.95147762  0.53198311  0.03960097    -0.33700
N725        N  0.95453058  0.52989649  0.06336895    -0.28000
C726        C  0.95385497  0.55250120  0.07344533    -0.04100
C727        C  0.95006212  0.56945767  0.05497991     0.08200
C728        C  0.94869725  0.55575606  0.03380880     0.01900
H729        H  0.95582024  0.55628180  0.09269650     0.09600
H730        H  0.94617497  0.56251785  0.01543711     0.08700
N731        N  0.96393047  0.45919463  0.08974724    -0.35200
N732        N  0.96968433  0.44083211  0.07485679    -0.27300
C733        C  0.97185498  0.42012204  0.08814253    -0.02600
C734        C  0.96693158  0.42566741  0.11236788     0.06000
C735        C  0.96194042  0.45053175  0.11266630     0.04100
H736        H  0.97629999  0.40226901  0.08064109     0.09200
H737        H  0.95751718  0.46164798  0.12846783     0.08100
N738        N  0.97665727  0.41370911  0.77498968    -0.02500
C739        C  0.99158529  0.42026281  0.79365876     0.00100
C740        C  0.01576737  0.42190617  0.78573625    -0.22800
C741        C  0.01573640  0.41657816  0.76120902    -0.23000
C742        C  0.99152606  0.41145276  0.75494461     0.00000
H743        H  0.03174485  0.42627196  0.79668158     0.13800
H744        H  0.03182217  0.41598587  0.74941951     0.13800
C745        C  0.97924687  0.42873284  0.90081905     0.30700
C746        C  0.99076690  0.41357982  0.88343022    -0.35600
C747        C  0.98592672  0.41906432  0.85889041     0.16700
C748        C  0.97059792  0.43798735  0.85181754     0.22500
C749        C  0.95923300  0.45326313  0.86920913    -0.33700
C750        C  0.96426820  0.44791896  0.89374275     0.16600
O751        O  0.98156566  0.42725581  0.92477649    -0.25700
C752        C  0.96799796  0.44586764  0.93313956     0.06400
C753        C  0.95690299  0.45934920  0.91460971    -0.30600
O754        O  0.96942282  0.44032864  0.82783773    -0.22500
C755        C  0.98425454  0.42268457  0.81950897    -0.02400
C756        C  0.99509854  0.40903367  0.83799210    -0.16900
H757        H  0.00300284  0.39878639  0.88865137     0.21100
H758        H  0.94763718  0.46855775  0.86397326     0.19500
H759        H  0.94522245  0.47540812  0.91624729     0.19400
H760        H  0.00849425  0.39437209  0.83621437     0.15300
C761        C  0.98170298  0.35587806  0.19397727     0.30700
C762        C  0.98677292  0.35792292  0.16893200    -0.35600
C763        C  0.97684324  0.37849479  0.15717317     0.16700
C764        C  0.96308119  0.39607240  0.16926924     0.22500
C765        C  0.95747407  0.39371097  0.19425041    -0.33700
C766        C  0.96715725  0.37290623  0.20597464     0.16600
O767        O  0.99139635  0.33960821  0.20891521    -0.25700
C768        C  0.98245871  0.34579161  0.23072541     0.06400
C769        C  0.96714784  0.36632114  0.23000990    -0.30600
O770        O  0.95746110  0.41485352  0.15510019    -0.22500
C771        C  0.96747514  0.40902785  0.13358729    -0.02400
C772        C  0.97960371  0.38652685  0.13378684    -0.16900
H773        H  0.99851261  0.34488660  0.15946535     0.21100
H774        H  0.94706534  0.40758816  0.20405878     0.19500
H775        H  0.95913423  0.37625563  0.24523828     0.19400
H776        H  0.98992874  0.37790231  0.11913821     0.15300
C777        C  0.96463020  0.38622805  0.70213159     0.30700
C778        C  0.94775877  0.37173275  0.68922920    -0.35600
C779        C  0.95420043  0.36620675  0.66503374     0.16700
C780        C  0.97558721  0.37466425  0.65405417     0.22500
C781        C  0.99245416  0.38928132  0.66699532    -0.33700
C782        C  0.98615967  0.39448556  0.69137643     0.16600
O783        O  0.96312500  0.39194238  0.72544495    -0.25700
C784        C  0.98398386  0.40389509  0.72999709     0.06400
C785        C  0.99901925  0.40608770  0.70931290    -0.30600
O786        O  0.97853165  0.36603503  0.63167052    -0.22500
C787        C  0.95885966  0.35172416  0.62841708    -0.02400
C788        C  0.94311137  0.35120838  0.64856861    -0.16900
H789        H  0.93121499  0.36446806  0.69777212     0.21100
H790        H  0.00969466  0.39536672  0.65892851     0.19500
H791        H  0.01721890  0.41417753  0.70786301     0.19400
H792        H  0.92636802  0.34059360  0.65105350     0.15300
C793        C  0.99798680  0.31915218  0.35503879     0.30700
C794        C  0.00773012  0.32271724  0.37842509    -0.35600
C795        C  0.99412854  0.31260924  0.39778863     0.16700
C796        C  0.97270156  0.29935956  0.39431177     0.22500
C797        C  0.96286063  0.29589344  0.37088311    -0.33700
C798        C  0.97621534  0.30650328  0.35152713     0.16600
O799        O  0.00774320  0.32713047  0.33446680    -0.25700
C800        C  0.99189833  0.31991565  0.31745533     0.06400
C801        C  0.97187844  0.30689478  0.32700111    -0.30600
O802        O  0.96331503  0.29107161  0.41498413    -0.22500
C803        C  0.97865551  0.29956355  0.43190967    -0.02400
C804        C  0.99815635  0.31312706  0.42230919    -0.16900
H805        H  0.02468349  0.33281994  0.38132353     0.21100
H806        H  0.94596243  0.28570456  0.36797293     0.19500
H807        H  0.95673197  0.29842256  0.31736031     0.19400
H808        H  0.01329026  0.32164991  0.43195276     0.15300
C809        C  0.54375752  0.05605193  0.75195852     0.30700
C810        C  0.56335418  0.07146724  0.74504843    -0.35600
C811        C  0.55985696  0.09666004  0.74922500     0.16700
C812        C  0.53867594  0.10611897  0.75977674     0.22500
C813        C  0.51900978  0.09067753  0.76659695    -0.33700
C814        C  0.52236389  0.06548532  0.76206863     0.16600
O815        O  0.54282418  0.03199613  0.74905367    -0.25700
C816        C  0.52042561  0.02592398  0.75715441     0.06400
C817        C  0.50684105  0.04604276  0.76539130    -0.30600
O818        O  0.53872426  0.13039469  0.76043809    -0.22500
C819        C  0.56018459  0.13647774  0.75010834    -0.02400
C820        C  0.57401176  0.11626741  0.74273245    -0.16900
H821        H  0.57988192  0.06438283  0.73636355     0.21100
H822        H  0.50198339  0.09787269  0.77417989     0.19500
H823        H  0.48823786  0.04631307  0.77271856     0.19400
H824        H  0.59134696  0.11615346  0.73278390     0.15300
C825        C  0.59878299  0.75972419  0.73824902     0.30700
C826        C  0.59712587  0.78485900  0.73276793    -0.35600
C827        C  0.57991824  0.79840457  0.74647347     0.16700
C828        C  0.56508462  0.78786303  0.76416227     0.22500
C829        C  0.56715440  0.76280416  0.77005080    -0.33700
C830        C  0.58463224  0.74930603  0.75654547     0.16600
O831        O  0.61179296  0.74330091  0.72603073    -0.25700
C832        C  0.60646748  0.72211532  0.73697490     0.06400
C833        C  0.58968689  0.72472763  0.75615249    -0.30600
O834        O  0.54870189  0.80345916  0.77312870    -0.22500
C835        C  0.55335898  0.82436098  0.76130753    -0.02400
C836        C  0.57272681  0.82233500  0.74463262    -0.16900
H837        H  0.60783267  0.79309269  0.71814586     0.21100
H838        H  0.55531488  0.75423162  0.78359163     0.19500
H839        H  0.58083411  0.71041129  0.76676346     0.19400
H840        H  0.57957664  0.83610881  0.73204969     0.15300
C841        C  0.61218754  0.24970006  0.75792539     0.30700
C842        C  0.63523876  0.26006226  0.76339377    -0.35600
C843        C  0.63865316  0.28466537  0.75652417     0.16700
C844        C  0.62051877  0.29834504  0.74534472     0.22500
C845        C  0.59750717  0.28792054  0.73966638    -0.33700
C846        C  0.59418791  0.26319233  0.74630366     0.16600
O847        O  0.60602939  0.22638130  0.76056131    -0.25700
C848        C  0.58377289  0.22481801  0.75054849     0.06400
C849        C  0.57554515  0.24715385  0.74128391    -0.30600
O850        O  0.62775161  0.32104731  0.74056910    -0.22500
C851        C  0.65091441  0.32181941  0.74858769    -0.02400
C852        C  0.65869025  0.29964194  0.75853862    -0.16900
H853        H  0.64981411  0.24942223  0.77175938     0.21100
H854        H  0.58339227  0.29819558  0.73017332     0.19500
H855        H  0.55921553  0.25053811  0.73049921     0.19400
H856        H  0.67644042  0.29527511  0.76641262     0.15300
C857        C  0.64933218  0.60433828  0.74324748     0.30700
C858        C  0.66209433  0.58850694  0.75896612    -0.35600
C859        C  0.66294752  0.56368230  0.75197865     0.16700
C860        C  0.65165813  0.55493408  0.73119106     0.22500
C861        C  0.63926225  0.57080223  0.71531900    -0.33700
C862        C  0.63873125  0.59563224  0.72211799     0.16600
O863        O  0.64615693  0.62824777  0.74612569    -0.25700
C864        C  0.63360364  0.63495219  0.72640769     0.06400
C865        C  0.62861192  0.61537561  0.71084534    -0.30600
O866        O  0.65483475  0.53109583  0.72810170    -0.22500
C867        C  0.66863375  0.52454446  0.74697668    -0.02400
C868        C  0.67433497  0.54404487  0.76237308    -0.16900
H869        H  0.67091267  0.59511129  0.77540160     0.21100
H870        H  0.63078221  0.56426832  0.69868394     0.19500
H871        H  0.61863328  0.61557343  0.69379975     0.19400
H872        H  0.68550874  0.54378352  0.77868303     0.15300
C873        C  0.91348049  0.42323973  0.77958220     0.30700
C874        C  0.89187855  0.43706238  0.78298611    -0.35600
C875        C  0.86975838  0.42556373  0.77629115     0.16700
C876        C  0.86883705  0.40197918  0.76709655     0.22500
C877        C  0.89044451  0.38804372  0.76390451    -0.33700
C878        C  0.91261613  0.39959114  0.77052130     0.16600
O879        O  0.93625739  0.43096702  0.78318585    -0.25700
C880        C  0.95015987  0.41209400  0.77617484     0.06400
C881        C  0.93646941  0.39179020  0.76880771    -0.30600
O882        O  0.84610207  0.39492963  0.76199251    -0.22500
C883        C  0.83232686  0.41431866  0.76791294    -0.02400
C884        C  0.84609953  0.43392127  0.77682145    -0.16900
H885        H  0.89233653  0.45570287  0.78984426     0.21100
H886        H  0.89003939  0.36963399  0.75645767     0.19500
H887        H  0.94309282  0.37412799  0.76252014     0.19400
H888        H  0.83962620  0.45170757  0.78293317     0.15300
C889        C  0.65395258  0.17550388  0.30714064     0.30700
C890        C  0.65627142  0.15038376  0.31262183    -0.35600
C891        C  0.63500916  0.13598748  0.30938230     0.16700
C892        C  0.61310818  0.14564618  0.30100668     0.22500
C893        C  0.61070122  0.17079568  0.29578730    -0.33700
C894        C  0.63185910  0.18522638  0.29930567     0.16600
O895        O  0.67164633  0.19214113  0.30821309    -0.25700
C896        C  0.66069740  0.21285958  0.30124692     0.06400
C897        C  0.63589513  0.20968594  0.29554702    -0.30600
O898        O  0.59615680  0.12864338  0.29753025    -0.22500
C899        C  0.60707681  0.10779807  0.30418697    -0.02400
C900        C  0.63135206  0.11124972  0.31168181    -0.16900
H901        H  0.67356138  0.14254523  0.31859484     0.21100
H902        H  0.59365243  0.17848111  0.28899535     0.19500
H903        H  0.62291891  0.22328802  0.28909531     0.19400
H904        H  0.64489607  0.09748261  0.31635889     0.15300
C905        C  0.91809137  0.31409205  0.27496150     0.30700
C906        C  0.89756260  0.29874922  0.27144595    -0.35600
C907        C  0.87510026  0.30722238  0.28115816     0.16700
C908        C  0.87297466  0.32944226  0.29314295     0.22500
C909        C  0.89349649  0.34470540  0.29677757    -0.33700
C910        C  0.91599853  0.33610473  0.28738328     0.16600
O911        O  0.94097039  0.30947129  0.26804060    -0.25700
C912        C  0.95355501  0.32869041  0.27630188     0.06400
C913        C  0.93914100  0.34585264  0.28851991    -0.30600
O914        O  0.85018590  0.33403320  0.30028068    -0.22500
C915        C  0.83754054  0.31441823  0.29303625    -0.02400
C916        C  0.85207872  0.29702906  0.28111911    -0.16900
H917        H  0.89905578  0.28132806  0.26200398     0.21100
H918        H  0.89203557  0.36202003  0.30642172     0.19500
H919        H  0.94497836  0.36271057  0.29723930     0.19400
H920        H  0.84641491  0.27974682  0.27312466     0.15300
C921        C  0.62912178  0.48963471  0.31166060     0.30700
C922        C  0.62301520  0.46451450  0.31280803    -0.35600
C923        C  0.64292306  0.44796470  0.31132340     0.16700
C924        C  0.66712593  0.45570007  0.30920360     0.22500
C925        C  0.67319971  0.48067821  0.30798313    -0.33700
C926        C  0.65336845  0.49711607  0.30914012     0.16600
O927        O  0.61349559  0.50830432  0.31123722    -0.25700
C928        C  0.62802582  0.52785466  0.30821884     0.06400
C929        C  0.65294263  0.52193509  0.30679586    -0.30600
O930        O  0.68284760  0.43731130  0.30792121    -0.22500
C931        C  0.66865967  0.41739399  0.30905112    -0.02400
C932        C  0.64359261  0.42284865  0.31110920    -0.16900
H933        H  0.60404933  0.45830148  0.31420364     0.21100
H934        H  0.69210838  0.48686714  0.30575676     0.19500
H935        H  0.66842813  0.53414136  0.30356192     0.19400
H936        H  0.62819523  0.41020306  0.31229825     0.15300
C937        C  0.54340329  0.99589603  0.31967662     0.30700
C938        C  0.52216067  0.98129174  0.31873567    -0.35600
C939        C  0.52538336  0.95626121  0.32347708     0.16700
C940        C  0.54797766  0.94594990  0.32871953     0.22500
C941        C  0.56940836  0.96074218  0.32993426    -0.33700
C942        C  0.56614467  0.98608671  0.32534937     0.16600
O943        O  0.54460845  0.01923819  0.31356709    -0.25700
C944        C  0.56834322  0.02498519  0.31574819     0.06400
C945        C  0.58272912  0.00509376  0.32316283    -0.30600
O946        O  0.54651369  0.92174325  0.33155002    -0.22500
C947        C  0.52259781  0.91674677  0.32816644    -0.02400
C948        C  0.50876380  0.93762840  0.32311374    -0.16900
H949        H  0.50435808  0.98885283  0.31388779     0.21100
H950        H  0.58741067  0.95298008  0.33360831     0.19500
H951        H  0.60264175  0.00423670  0.32456112     0.19400
H952        H  0.48923310  0.93895877  0.31927889     0.15300
C953        C  0.55633505  0.63346716  0.32176501     0.30700
C954        C  0.53308861  0.64494712  0.32312862    -0.35600
C955        C  0.53330768  0.67062741  0.32625068     0.16700
C956        C  0.55486819  0.68404242  0.32798269     0.22500
C957        C  0.57800289  0.67259748  0.32666662    -0.33700
C958        C  0.57778311  0.64704098  0.32352886     0.16600
O959        O  0.56067558  0.61001591  0.31693637    -0.25700
C960        C  0.58522717  0.60864771  0.31582552     0.06400
C961        C  0.59671088  0.63114761  0.31971264    -0.30600
O962        O  0.55091118  0.70788432  0.32996379    -0.22500
C963        C  0.52645494  0.70991200  0.32949172    -0.02400
C964        C  0.51452520  0.68729958  0.32720516    -0.16900
H965        H  0.51608971  0.63471485  0.32118831     0.21100
H966        H  0.59501173  0.68297833  0.32738485     0.19500
H967        H  0.61619283  0.63541536  0.31834121     0.19400
H968        H  0.49492357  0.68369881  0.32596083     0.15300
C969        C  0.94057285  0.67789922  0.05165361     0.30700
C970        C  0.93716439  0.65731928  0.03667270    -0.35600
C971        C  0.94168510  0.63445632  0.04746410     0.16700
C972        C  0.94865943  0.63185411  0.07148127     0.22500
C973        C  0.95181015  0.65247216  0.08658903    -0.33700
C974        C  0.94763997  0.67543880  0.07566990     0.16600
O975        O  0.93869395  0.70103805  0.04486608    -0.25700
C976        C  0.94463710  0.71361087  0.06476491     0.06400
C977        C  0.95022992  0.69868637  0.08458313    -0.30600
O978        O  0.95236801  0.60865936  0.07754793    -0.22500
C979        C  0.94783372  0.59634777  0.05706039    -0.02400
C980        C  0.94112106  0.61149174  0.03778746    -0.16900
H981        H  0.93192066  0.65903077  0.01776099     0.21100
H982        H  0.95763594  0.65076535  0.10534080     0.19500
H983        H  0.95550935  0.70404257  0.10278972     0.19400
H984        H  0.93671211  0.60638312  0.01925862     0.15300
C985        C  0.83004057  0.73804022  0.01638168     0.30700
C986        C  0.85455899  0.73058660  0.01233428    -0.35600
C987        C  0.87211976  0.73981297  0.02866616     0.16700
C988        C  0.86605670  0.75582380  0.04726907     0.22500
C989        C  0.84154368  0.76332596  0.05129916    -0.33700
C990        C  0.82389741  0.75366375  0.03529666     0.16600
O991        O  0.81057085  0.73073401  0.00401174    -0.25700
C992        C  0.79165011  0.74160275  0.01526649     0.06400
C993        C  0.79883677  0.75621220  0.03481416    -0.30600
O994        O  0.88553202  0.76295604  0.05972631    -0.22500
C995        C  0.90426514  0.75093826  0.04935099    -0.02400
C996        C  0.89702473  0.73628182  0.02989393    -0.16900
H997        H  0.85954666  0.71822418  0.99764355     0.21100
H998        H  0.83655873  0.77565466  0.06601283     0.19500
H999        H  0.78726457  0.76673476  0.04712963     0.19400
H1000       H  0.90853218  0.72567053  0.01761054     0.15300
C1001       C  0.66087400  0.68389218  0.83819852     0.30700
C1002       C  0.66967326  0.68363679  0.81405006    -0.35600
C1003       C  0.65173864  0.68062443  0.79590535     0.16700
C1004       C  0.62687042  0.67805835  0.80118192     0.22500
C1005       C  0.61813862  0.67819521  0.82529728    -0.33700
C1006       C  0.63604192  0.68123280  0.84338249     0.16600
O1007       O  0.67423111  0.68702856  0.85801218    -0.25700
C1008       C  0.65768030  0.68640893  0.87607377     0.06400
C1009       C  0.63365562  0.68280796  0.86801467    -0.30600
O1010       O  0.61321426  0.67643546  0.78143408    -0.22500
C1011       C  0.62959907  0.67781109  0.76336617    -0.02400
C1012       C  0.65383088  0.68042762  0.77112667    -0.16900
H1013       H  0.68902397  0.68591155  0.80974363     0.21100
H1014       H  0.59870305  0.67644495  0.82963761     0.19500
H1015       H  0.61679778  0.68183144  0.87870396     0.19400
H1016       H  0.67031003  0.68256421  0.76010211     0.15300
C1017       C  0.52747190  0.74828236  0.10467599     0.30700
C1018       C  0.55219557  0.75515876  0.10094650    -0.35600
C1019       C  0.56592524  0.74043532  0.08483859     0.16700
C1020       C  0.55592597  0.72047642  0.07290932     0.22500
C1021       C  0.53131316  0.71325429  0.07706097    -0.33700
C1022       C  0.51766023  0.72779262  0.09348912     0.16600
O1023       O  0.51075713  0.76089606  0.11698929    -0.25700
C1024       C  0.49004770  0.74803577  0.11425922     0.06400
C1025       C  0.49325224  0.72716820  0.09988355    -0.30600
O1026       O  0.57149341  0.71064007  0.05704257    -0.22500
C1027       C  0.59183673  0.72425809  0.05911913    -0.02400
C1028       C  0.58947326  0.74295200  0.07626927    -0.16900
H1029       H  0.55993578  0.77144508  0.10931502     0.21100
H1030       H  0.52312062  0.69788680  0.06749033     0.19500
H1031       H  0.47921528  0.71466591  0.09332544     0.19400
H1032       H  0.60273114  0.75709693  0.08082844     0.15300
C1033       C  0.06414477  0.73965041  0.11667146     0.30700
C1034       C  0.05438581  0.74626893  0.09397997    -0.35600
C1035       C  0.02884274  0.74307564  0.09131664     0.16700
C1036       C  0.01390122  0.73365506  0.10951850     0.22500
C1037       C  0.02365516  0.72707101  0.13224981    -0.33700
C1038       C  0.04915431  0.73064422  0.13507490     0.16600
O1039       O  0.08724183  0.74257435  0.12363581    -0.25700
C1040       C  0.08700628  0.73558068  0.14688196     0.06400
C1041       C  0.06380387  0.72798995  0.15497725    -0.30600
O1042       O  0.99026678  0.73432868  0.10380425    -0.22500
C1043       C  0.99004304  0.74420912  0.08161614    -0.02400
C1044       C  0.01351481  0.75034332  0.07319727    -0.16900
H1045       H  0.06574243  0.75432276  0.07974528     0.21100
H1046       H  0.01200217  0.72065879  0.14706196     0.19500
H1047       H  0.05840170  0.72192313  0.17304197     0.19400
H1048       H  0.01844237  0.76072305  0.05715082     0.15300
C1049       C  0.31982762  0.74837396  0.15100960     0.30700
C1050       C  0.33511862  0.75773801  0.13244282    -0.35600
C1051       C  0.36061337  0.75472741  0.13576150     0.16700
C1052       C  0.37045174  0.74284888  0.15570291     0.22500
C1053       C  0.35515549  0.73351389  0.17429695    -0.33700
C1054       C  0.32966615  0.73694346  0.17120151     0.16600
O1055       O  0.29552339  0.75010774  0.15215662    -0.25700
C1056       C  0.28972100  0.73985348  0.17347793     0.06400
C1057       C  0.31023730  0.73134854  0.18609405    -0.30600
O1058       O  0.39484602  0.74272632  0.15538052    -0.22500
C1059       C  0.40065712  0.75492671  0.13509883    -0.02400
C1060       C  0.38012506  0.76288937  0.12224082    -0.16900
H1061       H  0.32768888  0.76727178  0.11680676     0.21100
H1062       H  0.36263143  0.72474130  0.19035029     0.19500
H1063       H  0.31078904  0.72259538  0.20380647     0.19400
H1064       H  0.37970834  0.77350678  0.10556355     0.15300
C1065       C  0.86197299  0.46922976  0.72516960     0.30700
C1066       C  0.83825832  0.47938103  0.72754108    -0.35600
C1067       C  0.81907047  0.46607495  0.71670687     0.16700
C1068       C  0.82294247  0.44405723  0.70482737     0.22500
C1069       C  0.84665408  0.43385405  0.70251285    -0.33700
C1070       C  0.86592382  0.44743200  0.71287735     0.16600
O1071       O  0.88249991  0.47862535  0.73388665    -0.25700
C1072       C  0.89988963  0.46289966  0.72674588     0.06400
C1073       C  0.89071679  0.44307521  0.71361045    -0.30600
O1074       O  0.80230625  0.43438072  0.69666937    -0.22500
C1075       C  0.78497814  0.45057153  0.70297835    -0.02400
C1076       C  0.79432250  0.47060701  0.71571987    -0.16900
H1077       H  0.83502507  0.49646895  0.73710225     0.21100
H1078       H  0.84984281  0.41659279  0.69322994     0.19500
H1079       H  0.90075900  0.42755598  0.70620656     0.19400
H1080       H  0.78432570  0.48573391  0.72391263     0.15300
C1081       C  0.13806728  0.46441358  0.67784814     0.30700
C1082       C  0.16334462  0.46966791  0.67506674    -0.35600
C1083       C  0.17407571  0.46302002  0.65262030     0.16700
C1084       C  0.16095180  0.45150440  0.63440060     0.22500
C1085       C  0.13567082  0.44639411  0.63712231    -0.33700
C1086       C  0.12486228  0.45340392  0.65938026     0.16600
O1087       O  0.12432203  0.46893861  0.69731621    -0.25700
C1088       C  0.10197424  0.46090436  0.69115155     0.06400
C1089       C  0.10123281  0.45104682  0.66774762    -0.30600
O1090       O  0.17506681  0.44499643  0.61580036    -0.22500
C1091       C  0.19744005  0.45300309  0.62183384    -0.02400
C1092       C  0.19794012  0.46431533  0.64459170    -0.16900
H1093       H  0.17395435  0.47811656  0.68948124     0.21100
H1094       H  0.12524064  0.43722968  0.62301229     0.19500
H1095       H  0.08561056  0.44317929  0.65832726     0.19400
H1096       H  0.21386252  0.47054837  0.65466753     0.15300
C1097       C  0.66898646  0.47659497  0.66352670     0.30700
C1098       C  0.65773562  0.49188240  0.64628829    -0.35600
C1099       C  0.63288039  0.48684797  0.64121071     0.16700
C1100       C  0.61971553  0.46835616  0.65262068     0.22500
C1101       C  0.63095353  0.45313935  0.67000821    -0.33700
C1102       C  0.65597778  0.45789496  0.67475426     0.16600
O1103       O  0.69263797  0.47652199  0.66919375    -0.25700
C1104       C  0.69490449  0.45748083  0.68422215     0.06400
C1105       C  0.67265999  0.44522304  0.68828930    -0.30600
O1106       O  0.59711978  0.46595963  0.64389015    -0.22500
C1107       C  0.59593858  0.48302010  0.62652888    -0.02400
C1108       C  0.61764928  0.49652102  0.62411915    -0.16900
H1109       H  0.66798386  0.50599781  0.63664378     0.21100
H1110       H  0.62119688  0.43794030  0.67842339     0.19500
H1111       H  0.66948821  0.42861868  0.69870257     0.19400
H1112       H  0.62190266  0.51081141  0.61100844     0.15300
C1113       C  0.31766930  0.44855848  0.57177799     0.30700
C1114       C  0.33820086  0.44289870  0.55705147    -0.35600
C1115       C  0.36078122  0.45313900  0.56430476     0.16700
C1116       C  0.36312194  0.46760273  0.58486619     0.22500
C1117       C  0.34251115  0.47358819  0.59935045    -0.33700
C1118       C  0.31984479  0.46374710  0.59182852     0.16600
O1119       O  0.29501717  0.44007184  0.56907495    -0.25700
C1120       C  0.28241367  0.45045579  0.58727212     0.06400
C1121       C  0.29687421  0.46545996  0.60193734    -0.30600
O1122       O  0.38604994  0.47501052  0.58837420    -0.22500
C1123       C  0.39844365  0.46546175  0.56960751    -0.02400
C1124       C  0.38369986  0.45170849  0.55404946    -0.16900
H1125       H  0.33670356  0.43123612  0.54112161     0.21100
H1126       H  0.34404257  0.48508615  0.61538374     0.19500
H1127       H  0.29150371  0.47507095  0.61842748     0.19400
H1128       H  0.38916411  0.44207411  0.53761475     0.15300
C1129       C  0.58709591  0.53946567  0.37255662     0.30700
C1130       C  0.59238521  0.52760546  0.39456424    -0.35600
C1131       C  0.57229494  0.52369664  0.41028607     0.16700
C1132       C  0.54847877  0.53063392  0.40472608     0.22500
C1133       C  0.54317224  0.54263615  0.38264526    -0.33700
C1134       C  0.56341292  0.54689584  0.36698022     0.16600
O1135       O  0.60319850  0.54488176  0.35529128    -0.25700
C1136       C  0.58978567  0.55622299  0.33850518     0.06400
C1137       C  0.56487609  0.55806631  0.34469460    -0.30600
O1138       O  0.53266860  0.52550802  0.42250732    -0.22500
C1139       C  0.54670541  0.51540254  0.43966288    -0.02400
C1140       C  0.57145517  0.51380319  0.43299113    -0.16900
H1141       H  0.61093215  0.52203602  0.39921311     0.21100
H1142       H  0.52468374  0.54849584  0.37814479     0.19500
H1143       H  0.55002030  0.56581249  0.33412489     0.19400
H1144       H  0.58671448  0.50678156  0.44354994     0.15300
C1145       C  0.15671872  0.06985777  0.02403448     0.30700
C1146       C  0.16964776  0.08618487  0.00865768    -0.35600
C1147       C  0.16672094  0.11138182  0.01374372     0.16700
C1148       C  0.15173363  0.11989441  0.03237749     0.22500
C1149       C  0.13927609  0.10361120  0.04799681    -0.33700
C1150       C  0.14251471  0.07850842  0.04317758     0.16600
O1151       O  0.15671234  0.04556167  0.02275404    -0.25700
C1152       C  0.14254487  0.03865475  0.04153471     0.06400
C1153       C  0.13341484  0.05839949  0.05491051    -0.30600
O1154       O  0.15096357  0.14410621  0.03346656    -0.22500
C1155       C  0.16599811  0.15131560  0.01557427    -0.02400
C1156       C  0.17653770  0.13176028  0.00282152    -0.16900
H1157       H  0.18125946  0.07969855  0.99382585     0.21100
H1158       H  0.12781474  0.11009370  0.06294524     0.19500
H1159       H  0.12160983  0.05794522  0.07092891     0.19400
H1160       H  0.18925152  0.13250833  0.98750553     0.15300
C1161       C  0.03836599  0.48990679  0.95461324     0.30700
C1162       C  0.05012510  0.48320328  0.93273203    -0.35600
C1163       C  0.03698858  0.48797973  0.91129871     0.16700
C1164       C  0.01377716  0.49842689  0.91134317     0.22500
C1165       C  0.00207537  0.50528838  0.93323397    -0.33700
C1166       C  0.01533014  0.50071033  0.95467710     0.16600
O1167       O  0.04678460  0.48605653  0.97679492    -0.25700
C1168       C  0.02910179  0.49484493  0.99129798     0.06400
C1169       C  0.00905117  0.50411903  0.97852524    -0.30600
O1170       O  0.00474523  0.50082443  0.88917287    -0.22500
C1171       C  0.02252627  0.49198770  0.87475874    -0.02400
C1172       C  0.04299927  0.48373327  0.88753724    -0.16900
H1173       H  0.06812863  0.47461167  0.93245543     0.21100
H1174       H  0.98385734  0.51338997  0.93353368     0.19500
H1175       H  0.99178913  0.51105093  0.98572310     0.19400
H1176       H  0.05978443  0.47561918  0.88038337     0.15300
C1177       C  0.05466046  0.41025360  0.01596739     0.30700
C1178       C  0.05563456  0.38456384  0.01881539    -0.35600
C1179       C  0.07738897  0.37298766  0.01066414     0.16700
C1180       C  0.09681753  0.38589762  0.00048417     0.22500
C1181       C  0.09575757  0.41148341  0.99743775    -0.33700
C1182       C  0.07399969  0.42299567  0.00543622     0.16600
O1183       O  0.03718456  0.42501664  0.02433359    -0.25700
C1184       C  0.04512193  0.44748493  0.01855437     0.06400
C1185       C  0.06805525  0.44727588  0.00695695    -0.30600
O1186       O  0.11587657  0.37174165  0.99531461    -0.22500
C1187       C  0.10867989  0.34936043  0.00214095    -0.02400
C1188       C  0.08481529  0.34897828  0.01178581    -0.16900
H1189       H  0.04079660  0.37441364  0.02752066     0.21100
H1190       H  0.11116318  0.42180750  0.98997877     0.19500
H1191       H  0.07968987  0.46280564  0.00234310     0.19400
H1192       H  0.07472960  0.33346464  0.01916631     0.15300
C1193       C  0.10688526  0.91309084  0.03980981     0.30700
C1194       C  0.10296302  0.88850356  0.04695177    -0.35600
C1195       C  0.08370025  0.87592170  0.03513733     0.16700
C1196       C  0.06909450  0.88699401  0.01780553     0.22500
C1197       C  0.07332337  0.91136328  0.01036830    -0.33700
C1198       C  0.09280334  0.92377150  0.02184421     0.16600
O1199       O  0.12239940  0.92886514  0.04982836    -0.25700
C1200       C  0.11864717  0.94981722  0.03775856     0.06400
C1201       C  0.10046778  0.94762333  0.02004192    -0.30600
O1202       O  0.05116090  0.87251700  0.01017428    -0.22500
C1203       C  0.05442736  0.85163168  0.02239560    -0.02400
C1204       C  0.07452335  0.85262620  0.03814934    -0.16900
H1205       H  0.11374718  0.87998914  0.06120207     0.21100
H1206       H  0.06178768  0.92025773  0.99694129     0.19500
H1207       H  0.09255855  0.96198199  0.00889584     0.19400
H1208       H  0.08086891  0.83857251  0.05058279     0.15300
C1209       C  0.01126896  0.61677594  0.03354462     0.30700
C1210       C  0.01945895  0.59795256  0.04908143    -0.35600
C1211       C  0.01770083  0.57386459  0.03990476     0.16700
C1212       C  0.00881390  0.56864115  0.01697107     0.22500
C1213       C  0.00005146  0.58734629  0.00172338    -0.33700
C1214       C  0.00153177  0.61135085  0.01097511     0.16600
O1215       O  0.01184095  0.64070156  0.03796399    -0.25700
C1216       C  0.00200335  0.65061181  0.01804547     0.06400
C1217       C  0.99503849  0.63317218  0.00084034    -0.30600
O1218       O  0.00946543  0.54493752  0.01182288    -0.22500
C1219       C  0.01857239  0.53464348  0.03182719    -0.02400
C1220       C  0.02390600  0.55183927  0.04993881    -0.16900
H1221       H  0.02684013  0.60180663  0.06695756     0.21100
H1222       H  0.99271722  0.58347060  0.98382842     0.19500
H1223       H  0.98684554  0.63621744  0.98315377     0.19400
H1224       H  0.03154931  0.54858836  0.06782841     0.15300
C1225       C  0.30560399  0.02765677  0.72928297     0.30700
C1226       C  0.32467723  0.03832433  0.71536714    -0.35600
C1227       C  0.34862999  0.02979341  0.72017880     0.16700
C1228       C  0.35338004  0.01185207  0.73729472     0.22500
C1229       C  0.33440183  0.00133467  0.75127545    -0.33700
C1230       C  0.31056732  0.01000355  0.74663818     0.16600
O1231       O  0.28182220  0.03280953  0.72793440    -0.25700
C1232       C  0.27156163  0.01836502  0.74477920     0.06400
C1233       C  0.28858037  0.00382152  0.75697140    -0.30600
O1234       O  0.37691224  0.00596848  0.73827477    -0.22500
C1235       C  0.38756716  0.02053217  0.72183217    -0.02400
C1236       C  0.37084638  0.03574338  0.70991283    -0.16900
H1237       H  0.32109814  0.05222272  0.70173980     0.21100
H1238       H  0.33796686  0.98727777  0.76475659     0.19500
H1239       H  0.28524460  0.99060723  0.77136905     0.19400
H1240       H  0.37434662  0.04862481  0.69526813     0.15300
C1241       C  0.14322659  0.99130565  0.97030738     0.30700
C1242       C  0.15551753  0.98421500  0.94886013    -0.35600
C1243       C  0.14874360  0.99678616  0.92763313     0.16700
C1244       C  0.13093436  0.01492671  0.92738999     0.22500
C1245       C  0.11874816  0.02213837  0.94887948    -0.33700
C1246       C  0.12567894  0.00973778  0.97017664     0.16600
O1247       O  0.14732080  0.98264764  0.99236103    -0.25700
C1248       C  0.13232232  0.99585575  0.00645073     0.06400
C1249       C  0.11842290  0.01299324  0.99375906    -0.30600
O1250       O  0.12760108  0.02424393  0.90543982    -0.22500
C1251       C  0.14361246  0.01199699  0.89152642    -0.02400
C1252       C  0.15729202  0.99474794  0.90438100    -0.16900
H1253       H  0.16963949  0.97012977  0.94879103     0.21100
H1254       H  0.10505939  0.03663280  0.94904262     0.19500
H1255       H  0.10544407  0.02628901  0.00099823     0.19400
H1256       H  0.17145552  0.98244512  0.89759128     0.15300
C1257       C  0.92227601  0.13786515  0.59706511     0.30700
C1258       C  0.91424065  0.12328491  0.61662067    -0.35600
C1259       C  0.92229918  0.09885925  0.61639651     0.16700
C1260       C  0.93736093  0.08945171  0.59820783     0.22500
C1261       C  0.94507651  0.10394789  0.57843123    -0.33700
C1262       C  0.93686796  0.12835533  0.57859333     0.16600
O1263       O  0.91782156  0.16144787  0.59423547    -0.25700
C1264       C  0.92946182  0.16706837  0.57356427     0.06400
C1265       C  0.94150538  0.14718544  0.56288599    -0.30600
O1266       O  0.94276692  0.06614247  0.60171726    -0.22500
C1267       C  0.93090060  0.06068479  0.62229755    -0.02400
C1268       C  0.91776831  0.08016191  0.63226769    -0.16900
H1269       H  0.90271061  0.13055691  0.63112854     0.21100
H1270       H  0.95678052  0.09674504  0.56402377     0.19500
H1271       H  0.95283102  0.14689613  0.54653834     0.19400
H1272       H  0.90632266  0.08030922  0.64853147     0.15300
C1273       C  0.00994529  0.03547950  0.65860202     0.30700
C1274       C  0.03511907  0.02980942  0.66041168    -0.35600
C1275       C  0.04757163  0.04013524  0.68026279     0.16700
C1276       C  0.03600991  0.05482053  0.69739600     0.22500
C1277       C  0.01096136  0.06110843  0.69518211    -0.33700
C1278       C  0.99855145  0.05102704  0.67509846     0.16600
O1279       O  0.99419122  0.02518614  0.64347597    -0.25700
C1280       C  0.97252123  0.03477697  0.64984007     0.06400
C1281       C  0.97410319  0.05110257  0.66929822    -0.30600
O1282       O  0.05066515  0.06055338  0.71570395    -0.22500
C1283       C  0.07198607  0.04976488  0.70993810    -0.02400
C1284       C  0.07115871  0.03692941  0.68802791    -0.16900
H1285       H  0.04410148  0.01723106  0.64787322     0.21100
H1286       H  0.00153210  0.07219018  0.70876166     0.19500
H1287       H  0.95907833  0.05963259  0.67931128     0.19400
H1288       H  0.08550015  0.02585247  0.67966811     0.15300
C1289       C  0.51221906  0.04224650  0.68823218     0.30700
C1290       C  0.53785702  0.03835684  0.68682003    -0.35600
C1291       C  0.55015765  0.04976177  0.66724171     0.16700
C1292       C  0.53797478  0.06391632  0.65026531     0.22500
C1293       C  0.51249168  0.06812053  0.65193524    -0.33700
C1294       C  0.50023752  0.05682230  0.67150330     0.16600
O1295       O  0.49668627  0.03096336  0.70306215    -0.25700
C1296       C  0.47449559  0.03868594  0.69601977     0.06400
C1297       C  0.47564472  0.05483515  0.67641711    -0.30600
O1298       O  0.55251680  0.07115044  0.63232994    -0.22500
C1299       C  0.57441242  0.06173737  0.63787840    -0.02400
C1300       C  0.57414116  0.04830606  0.65950125    -0.16900
H1301       H  0.54731741  0.02628582  0.69932149     0.21100
H1302       H  0.50271263  0.07855712  0.63826871     0.19500
H1303       H  0.46071835  0.06182841  0.66547033     0.19400
H1304       H  0.58908851  0.03810395  0.66768723     0.15300
C1305       C  0.81180334  0.04735527  0.59324494     0.30700
C1306       C  0.83683985  0.05197475  0.58806729    -0.35600
C1307       C  0.85391148  0.04100660  0.60386730     0.16700
C1308       C  0.84678291  0.02629041  0.62316618     0.22500
C1309       C  0.82183690  0.02194395  0.62850086    -0.33700
C1310       C  0.80482258  0.03313150  0.61296007     0.16600
O1311       O  0.79266814  0.05539835  0.58077851    -0.25700
C1312       C  0.77327812  0.04643035  0.59292246     0.06400
C1313       C  0.77974192  0.03254231  0.61313689    -0.30600
O1314       O  0.86567826  0.01732826  0.63520622    -0.22500
C1315       C  0.88526816  0.02667978  0.62380231    -0.02400
C1316       C  0.87909519  0.04153838  0.60406854    -0.16900
H1317       H  0.84259507  0.06324124  0.57278213     0.21100
H1318       H  0.81609351  0.01055100  0.64369394     0.19500
H1319       H  0.76770585  0.02305605  0.62585849     0.19400
H1320       H  0.89128356  0.05088955  0.59139595     0.15300
C1321       C  0.61342144  0.07669747  0.42017505     0.30700
C1322       C  0.59347985  0.07243029  0.40451537    -0.35600
C1323       C  0.59944798  0.06924653  0.37978285     0.16700
C1324       C  0.62337150  0.07060154  0.37098443     0.22500
C1325       C  0.64332362  0.07480929  0.38665691    -0.33700
C1326       C  0.63737015  0.07765372  0.41143948     0.16600
O1327       O  0.61214817  0.07927653  0.44406545    -0.25700
C1328       C  0.63559499  0.08173261  0.45075407     0.06400
C1329       C  0.65210283  0.08096590  0.43120621    -0.30600
O1330       O  0.62460456  0.06817205  0.34707430    -0.22500
C1331       C  0.60122497  0.06488159  0.34058670    -0.02400
C1332       C  0.58473881  0.06528150  0.36011219    -0.16900
H1333       H  0.57464110  0.07148645  0.41117905     0.21100
H1334       H  0.66215455  0.07574667  0.38000401     0.19500
H1335       H  0.67204434  0.08203421  0.43157513     0.19400
H1336       H  0.56479584  0.06404076  0.35965460     0.15300
C1337       C  0.83572483  0.19312834  0.18112674     0.30700
C1338       C  0.81695486  0.18181552  0.16745589    -0.35600
C1339       C  0.79257103  0.18863792  0.17341975     0.16700
C1340       C  0.78713906  0.20556812  0.19141918     0.22500
C1341       C  0.80577912  0.21648994  0.20530816    -0.33700
C1342       C  0.83001003  0.20957376  0.19947418     0.16600
O1343       O  0.85985559  0.19022204  0.17825499    -0.25700
C1344       C  0.86956602  0.20487965  0.19516783     0.06400
C1345       C  0.85179986  0.21725200  0.20888809    -0.30600
O1346       O  0.76340647  0.21071572  0.19280834    -0.22500
C1347       C  0.75325151  0.19665689  0.17575128    -0.02400
C1348       C  0.77051537  0.18241142  0.16313647    -0.16900
H1349       H  0.82107697  0.16899854  0.15288728     0.21100
H1350       H  0.80169926  0.22991820  0.21934345     0.19500
H1351       H  0.85453074  0.23038656  0.22345824     0.19400
H1352       H  0.76746862  0.17035838  0.14774199     0.15300
C1353       C  0.14729692  0.19058294  0.11278907     0.30700
C1354       C  0.13690795  0.18480541  0.13562185    -0.35600
C1355       C  0.11128317  0.18823420  0.13799279     0.16700
C1356       C  0.09666743  0.19629453  0.11908925     0.22500
C1357       C  0.10708499  0.20221030  0.09628330    -0.33700
C1358       C  0.13280521  0.19927590  0.09407620     0.16600
O1359       O  0.17111672  0.19093274  0.10729850    -0.25700
C1360       C  0.17195409  0.20012443  0.08480767     0.06400
C1361       C  0.14867059  0.20589488  0.07584829    -0.30600
O1362       O  0.07332823  0.19935648  0.12576038    -0.22500
C1363       C  0.07307227  0.19343493  0.14933489    -0.02400
C1364       C  0.09618800  0.18643885  0.15787163    -0.16900
H1365       H  0.14817966  0.17907383  0.15081948     0.21100
H1366       H  0.09606844  0.20959338  0.08160741     0.19500
H1367       H  0.14420611  0.21526792  0.05907702     0.19400
H1368       H  0.10127878  0.18151215  0.17628884     0.15300
C1369       C  0.63047209  0.17559154  0.13676848     0.30700
C1370       C  0.60469345  0.17839500  0.13530061    -0.35600
C1371       C  0.59355090  0.16932248  0.11403402     0.16700
C1372       C  0.60692439  0.15833772  0.09550731     0.22500
C1373       C  0.63259769  0.15523589  0.09714418    -0.33700
C1374       C  0.64369705  0.16415715  0.11843083     0.16600
O1375       O  0.64493333  0.18510964  0.15360272    -0.25700
C1376       C  0.66771585  0.17929317  0.14624779     0.06400
C1377       C  0.66800102  0.16627242  0.12442092    -0.30600
O1378       O  0.59317900  0.15281066  0.07651854    -0.22500
C1379       C  0.57060102  0.16016150  0.08291204    -0.02400
C1380       C  0.56968018  0.17050786  0.10615285    -0.16900
H1381       H  0.59421759  0.18790357  0.14927544     0.21100
H1382       H  0.64331167  0.14725224  0.08241102     0.19500
H1383       H  0.68372437  0.16151749  0.11314894     0.19400
H1384       H  0.55398203  0.17861875  0.11543271     0.15300
C1385       C  0.29306191  0.20448079  0.03454779     0.30700
C1386       C  0.31263248  0.20999655  0.01848493    -0.35600
C1387       C  0.33557560  0.19942378  0.02397322     0.16700
C1388       C  0.33920331  0.18471999  0.04411564     0.22500
C1389       C  0.31950944  0.17888560  0.06000680    -0.33700
C1390       C  0.29641378  0.18917519  0.05429944     0.16600
O1391       O  0.27031077  0.21308048  0.03327860    -0.25700
C1392       C  0.25865817  0.20278059  0.05215979     0.06400
C1393       C  0.27402148  0.18771617  0.06591603    -0.30600
O1394       O  0.36247181  0.17764851  0.04626086    -0.22500
C1395       C  0.37382381  0.18770275  0.02704157    -0.02400
C1396       C  0.35791628  0.20132289  0.01248505    -0.16900
H1397       H  0.31023409  0.22187309  0.00288190     0.21100
H1398       H  0.32206241  0.16732232  0.07583882     0.19500
H1399       H  0.26957211  0.17791156  0.08254156     0.19400
H1400       H  0.36231063  0.21161836  0.99613995     0.15300
C1401       C  0.54718575  0.16883630  0.86232259     0.30700
C1402       C  0.56169852  0.15799773  0.84391343    -0.35600
C1403       C  0.56211973  0.17018008  0.82133830     0.16700
C1404       C  0.54952224  0.19183644  0.81727157     0.22500
C1405       C  0.53503187  0.20266941  0.83568647    -0.33700
C1406       C  0.53417673  0.19019298  0.85807740     0.16600
O1407       O  0.54329639  0.16002380  0.88446427    -0.25700
C1408       C  0.52729238  0.17574486  0.89438760     0.06400
C1409       C  0.52093358  0.19483879  0.87879039    -0.30600
O1410       O  0.55134277  0.19934401  0.79443345    -0.22500
C1411       C  0.56507359  0.18214128  0.78369153    -0.02400
C1412       C  0.57240144  0.16358940  0.79953679    -0.16900
H1413       H  0.57135420  0.14082442  0.84675454     0.21100
H1414       H  0.52445329  0.21922606  0.83250584     0.19500
H1415       H  0.50832805  0.20989130  0.88221646     0.19400
H1416       H  0.58290857  0.14718326  0.79538461     0.15300
C1417       C  0.75425559  0.85792665  0.37695756     0.30700
C1418       C  0.75068291  0.85134068  0.35246536    -0.35600
C1419       C  0.75829700  0.86862027  0.33499095     0.16700
C1420       C  0.76856097  0.89096195  0.34117272     0.22500
C1421       C  0.77245492  0.89741944  0.36569801    -0.33700
C1422       C  0.76504281  0.88000376  0.38320611     0.16600
O1423       O  0.74713776  0.84514005  0.39617942    -0.25700
C1424       C  0.75384646  0.85889836  0.41510133     0.06400
C1425       C  0.76511214  0.88084627  0.40812528    -0.30600
O1426       O  0.77330005  0.90476657  0.32189488    -0.22500
C1427       C  0.76616276  0.89100339  0.30310852    -0.02400
C1428       C  0.75675411  0.86828223  0.31018750    -0.16900
H1429       H  0.74207816  0.83413423  0.34740115     0.21100
H1430       H  0.78029104  0.91496489  0.37078091     0.19500
H1431       H  0.77120333  0.89577899  0.41965139     0.19400
H1432       H  0.74930165  0.85386767  0.29877744     0.15300
C1433       C  0.72935740  0.12283864  0.17813584     0.30700
C1434       C  0.73687642  0.10511764  0.19501156    -0.35600
C1435       C  0.74363070  0.08230802  0.18531692     0.16700
C1436       C  0.74301524  0.07716128  0.16068158     0.22500
C1437       C  0.73561659  0.09501514  0.14369349    -0.33700
C1438       C  0.72882466  0.11794895  0.15342376     0.16600
O1439       O  0.72292357  0.14552885  0.18332820    -0.25700
C1440       C  0.71794696  0.15532814  0.16173611     0.06400
C1441       C  0.72154335  0.13919949  0.14233707    -0.30600
O1442       O  0.74988309  0.05439958  0.15581564    -0.22500
C1443       C  0.75501966  0.04500238  0.17764181    -0.02400
C1444       C  0.75150786  0.06157704  0.19662173    -0.16900
H1445       H  0.73753064  0.10890891  0.21437416     0.21100
H1446       H  0.73521899  0.09130609  0.12431143     0.19500
H1447       H  0.72028404  0.14283307  0.12301264     0.19400
H1448       H  0.75404143  0.05869731  0.21596711     0.15300
C1449       C  0.83295524  0.77572766  0.96145066     0.30700
C1450       C  0.81176994  0.76406947  0.95242052    -0.35600
C1451       C  0.78958538  0.77712083  0.95495923     0.16700
C1452       C  0.78829356  0.79987436  0.96597890     0.22500
C1453       C  0.80952498  0.81167684  0.97471918    -0.33700
C1454       C  0.83175808  0.79875071  0.97193960     0.16600
O1455       O  0.85543361  0.76649434  0.96177111    -0.25700
C1456       C  0.86887442  0.78390832  0.97239343     0.06400
C1457       C  0.85513857  0.80444021  0.97908536    -0.30600
O1458       O  0.76539668  0.80761357  0.96868267    -0.22500
C1459       C  0.75181523  0.78979657  0.95898204    -0.02400
C1460       C  0.76592373  0.77045526  0.94988339    -0.16900
H1461       H  0.81243425  0.74584218  0.94459379     0.21100
H1462       H  0.80865323  0.82934928  0.98369789     0.19500
H1463       H  0.86134197  0.82084319  0.98835604     0.19400
H1464       H  0.75955625  0.75320062  0.94244204     0.15300
C1465       C  0.74626287  0.85349712  0.06632893     0.30700
C1466       C  0.74657660  0.85392775  0.04078853    -0.35600
C1467       C  0.73723113  0.83300114  0.02924309     0.16700
C1468       C  0.72801263  0.81307402  0.04193348     0.22500
C1469       C  0.72783267  0.81257348  0.06752330    -0.33700
C1470       C  0.73735175  0.83347603  0.07910767     0.16600
O1471       O  0.75343200  0.87142133  0.08073485    -0.25700
C1472       C  0.74923766  0.86277894  0.10305506     0.06400
C1473       C  0.73927811  0.83921568  0.10322344    -0.30600
O1474       O  0.71890323  0.79611311  0.02739505    -0.22500
C1475       C  0.72287111  0.80506290  0.00513724    -0.02400
C1476       C  0.73387959  0.82811215  0.00519391    -0.16900
H1477       H  0.75328288  0.86967108  0.03062401     0.21100
H1478       H  0.72039399  0.79714998  0.07767746     0.19500
H1479       H  0.73376284  0.82819803  0.11877500     0.19400
H1480       H  0.73764866  0.84008622  0.98983782     0.15300
C1481       C  0.75443483  0.83634126  0.54227189     0.30700
C1482       C  0.74746273  0.83694963  0.56704777    -0.35600
C1483       C  0.75751860  0.81852948  0.58197986     0.16700
C1484       C  0.77311909  0.80057629  0.57303083     0.22500
C1485       C  0.78066982  0.80042759  0.54846645    -0.33700
C1486       C  0.77089661  0.81900518  0.53363188     0.16600
O1487       O  0.74486290  0.84970088  0.52455488    -0.25700
C1488       C  0.75592262  0.84133628  0.50441493     0.06400
C1489       C  0.77234855  0.82229940  0.50900425    -0.30600
O1490       O  0.77812754  0.78354811  0.58941192    -0.22500
C1491       C  0.76594740  0.79081612  0.60932045    -0.02400
C1492       C  0.75298170  0.81263583  0.60583531    -0.16900
H1493       H  0.73414461  0.85011090  0.57394973     0.21100
H1494       H  0.79243594  0.78608384  0.54114765     0.19500
H1495       H  0.78200145  0.81094245  0.49581954     0.19400
H1496       H  0.74072488  0.82188606  0.61853040     0.15300
C1497       C  0.70974165  0.75207327  0.84223059     0.30700
C1498       C  0.69689189  0.74641225  0.86369275    -0.35600
C1499       C  0.70606335  0.75678404  0.88510769     0.16700
C1500       C  0.72666213  0.77170857  0.88559369     0.22500
C1501       C  0.73955191  0.77752557  0.86401893    -0.33700
C1502       C  0.73013428  0.76733690  0.84242957     0.16600
O1503       O  0.70415846  0.74439680  0.82017975    -0.25700
C1504       C  0.72089450  0.75515181  0.80590583     0.06400
C1505       C  0.73751373  0.76973243  0.81869298    -0.30600
O1506       O  0.73114637  0.78035329  0.90765917    -0.22500
C1507       C  0.71315939  0.77078725  0.92138246    -0.02400
C1508       C  0.69702569  0.75606914  0.90821300    -0.16900
H1509       H  0.68024208  0.73504830  0.86362541     0.21100
H1510       H  0.75551957  0.78964512  0.86399134     0.19500
H1511       H  0.75306496  0.78008656  0.81158105     0.19400
H1512       H  0.68048584  0.74698888  0.91448216     0.15300
C1513       C  0.73125641  0.52467765  0.69741215     0.30700
C1514       C  0.71899540  0.54623597  0.70420952    -0.35600
C1515       C  0.72971897  0.56824874  0.69642593     0.16700
C1516       C  0.75104951  0.56923184  0.68257033     0.22500
C1517       C  0.76344452  0.54751889  0.67565220    -0.33700
C1518       C  0.75273631  0.52531789  0.68370513     0.16600
O1519       O  0.72426766  0.50220367  0.70298795    -0.25700
C1520       C  0.74155292  0.48807129  0.69296011     0.06400
C1521       C  0.75973738  0.50135963  0.68054606    -0.30600
O1522       O  0.75782235  0.59210544  0.67764628    -0.22500
C1523       C  0.74061345  0.60575008  0.68871626    -0.02400
C1524       C  0.72271843  0.59179592  0.70061121    -0.16900
H1525       H  0.70224883  0.54591778  0.71503571     0.21100
H1526       H  0.78031907  0.54790559  0.66494735     0.19500
H1527       H  0.77552099  0.49439536  0.67049843     0.19400
H1528       H  0.70687230  0.59807962  0.71103887     0.15300
C1529       C  0.33407510  0.87816038  0.79150615     0.30700
C1530       C  0.31636522  0.86230500  0.80172426    -0.35600
C1531       C  0.29181331  0.86650526  0.79490366     0.16700
C1532       C  0.28519004  0.88481537  0.77877822     0.22500
C1533       C  0.30284630  0.90098399  0.76893485    -0.33700
C1534       C  0.32735506  0.89700558  0.77607366     0.16600
O1535       O  0.35814976  0.87707267  0.79482245    -0.25700
C1536       C  0.36693951  0.89569989  0.78166503     0.06400
C1537       C  0.34862162  0.90885881  0.76971776    -0.30600
O1538       O  0.26135245  0.88469066  0.77400991    -0.22500
C1539       C  0.25263026  0.86638315  0.78763168    -0.02400
C1540       C  0.27062219  0.85442254  0.80108894    -0.16900
H1541       H  0.32141469  0.84755140  0.81394461     0.21100
H1542       H  0.29785895  0.91548325  0.75639597     0.19500
H1543       H  0.35075814  0.92442723  0.75760265     0.19400
H1544       H  0.26843338  0.83877089  0.81308176     0.15300
C1545       C  0.21293937  0.85918771  0.87043268     0.30700
C1546       C  0.20478524  0.85303935  0.89399598    -0.35600
C1547       C  0.21112229  0.86953207  0.91255990     0.16700
C1548       C  0.22437998  0.89076458  0.90818820     0.22500
C1549       C  0.23309255  0.89659199  0.88469222    -0.33700
C1550       C  0.22695661  0.87994762  0.86612586     0.16600
O1551       O  0.20683966  0.84777509  0.85017294    -0.25700
C1552       C  0.21746536  0.86102936  0.83262057     0.06400
C1553       C  0.23042313  0.88120806  0.84146333    -0.30600
O1554       O  0.22654261  0.90450102  0.92788218    -0.22500
C1555       C  0.21485464  0.89171366  0.94514333    -0.02400
C1556       C  0.20500834  0.86972749  0.93670562    -0.16900
H1557       H  0.19343601  0.83700385  0.89745290     0.21100
H1558       H  0.24316905  0.91339563  0.88099579     0.19500
H1559       H  0.23924891  0.89576372  0.83114384     0.19400
H1560       H  0.19409560  0.85637152  0.94668544     0.15300
C1561       C  0.21462635  0.08700981  0.05680057     0.30700
C1562       C  0.22291241  0.10825401  0.04489978    -0.35600
C1563       C  0.21974200  0.13033226  0.05761629     0.16700
C1564       C  0.20873777  0.13164300  0.08036155     0.22500
C1565       C  0.20061313  0.11026280  0.09242492    -0.33700
C1566       C  0.20413833  0.08800891  0.07979413     0.16600
O1567       O  0.21577387  0.06450243  0.04806550    -0.25700
C1568       C  0.20615890  0.05069605  0.06572826     0.06400
C1569       C  0.19859530  0.06429852  0.08598253    -0.30600
O1570       O  0.20647723  0.15452873  0.08818976    -0.22500
C1571       C  0.21666595  0.16782162  0.07036737    -0.02400
C1572       C  0.22518513  0.15372066  0.05093352    -0.16900
H1573       H  0.23108885  0.10763083  0.02683914     0.21100
H1574       H  0.19199611  0.11094512  0.11028172     0.19500
H1575       H  0.19012207  0.05770577  0.10267258     0.19400
H1576       H  0.23320782  0.15990146  0.03389181     0.15300
C1577       C  0.27528209  0.79080483  0.28949419     0.30700
C1578       C  0.29797275  0.77877610  0.28626179    -0.35600
C1579       C  0.31916160  0.79302602  0.29026735     0.16700
C1580       C  0.31818217  0.81750893  0.29677759     0.22500
C1581       C  0.29546805  0.82960045  0.29988079    -0.33700
C1582       C  0.27424065  0.81528226  0.29614620     0.16600
O1583       O  0.25319345  0.78086068  0.28715666    -0.25700
C1584       C  0.23792486  0.79919759  0.29255606     0.06400
C1585       C  0.24982749  0.82104036  0.29828091    -0.30600
O1586       O  0.34028392  0.82691648  0.30077463    -0.22500
C1587       C  0.35558997  0.80816070  0.29690565    -0.02400
C1588       C  0.34345560  0.78667166  0.29017048    -0.16900
H1589       H  0.29902775  0.75952894  0.28144135     0.21100
H1590       H  0.29441314  0.84866947  0.30535917     0.19500
H1591       H  0.24163810  0.83850217  0.30315236     0.19400
H1592       H  0.35129919  0.76875035  0.28658935     0.15300
C1593       C  0.20563507  0.81651792  0.21086208     0.30700
C1594       C  0.20174794  0.81431433  0.18559617    -0.35600
C1595       C  0.20431711  0.83602535  0.17191061     0.16700
C1596       C  0.21016639  0.85827645  0.18250284     0.22500
C1597       C  0.21468054  0.86032264  0.20754761    -0.33700
C1598       C  0.21235440  0.83867770  0.22113503     0.16600
O1599       O  0.20106500  0.79955386  0.22750432    -0.25700
C1600       C  0.20561808  0.81085665  0.24855657     0.06400
C1601       C  0.21279664  0.83516548  0.24568444    -0.30600
O1602       O  0.20981670  0.87658440  0.16685617    -0.22500
C1603       C  0.20396329  0.86606324  0.14579140    -0.02400
C1604       C  0.20043402  0.84076438  0.14773218    -0.16900
H1605       H  0.19602867  0.79715054  0.17737598     0.21100
H1606       H  0.21873649  0.87782668  0.21601956     0.19500
H1607       H  0.21538827  0.84888269  0.25974792     0.19400
H1608       H  0.19500691  0.82795986  0.13362983     0.15300
C1609       C  0.22312028  0.83921633  0.70590223     0.30700
C1610       C  0.21596376  0.83683598  0.68141791    -0.35600
C1611       C  0.22756573  0.81804187  0.66804059     0.16700
C1612       C  0.24480735  0.80249765  0.67817870     0.22500
C1613       C  0.25251665  0.80538588  0.70240038    -0.33700
C1614       C  0.24118723  0.82437283  0.71566489     0.16600
O1615       O  0.21223817  0.85305010  0.72257520    -0.25700
C1616       C  0.22400071  0.84756074  0.74311710     0.06400
C1617       C  0.24231450  0.82996238  0.73985109    -0.30600
O1618       O  0.25132819  0.78456557  0.66328285    -0.22500
C1619       C  0.23841902  0.78884753  0.64316206    -0.02400
C1620       C  0.22347014  0.80958224  0.64498103    -0.16900
H1621       H  0.20141649  0.84798234  0.67371586     0.21100
H1622       H  0.26556155  0.79290781  0.71069940     0.19500
H1623       H  0.25284303  0.82061483  0.75376852     0.19400
H1624       H  0.21045653  0.81654025  0.63177362     0.15300
C1625       C  0.20159645  0.78465614  0.37387223     0.30700
C1626       C  0.19531102  0.78819353  0.39849393    -0.35600
C1627       C  0.20815780  0.77375668  0.41533748     0.16700
C1628       C  0.22544152  0.75643521  0.40839465     0.22500
C1629       C  0.23197586  0.75313624  0.38376749    -0.33700
C1630       C  0.21963272  0.76810221  0.36695294     0.16600
O1631       O  0.19132816  0.79562084  0.35507456    -0.25700
C1632       C  0.20336744  0.78648582  0.33588156     0.06400
C1633       C  0.22118311  0.76925681  0.34213632    -0.30600
O1634       O  0.23396784  0.74383218  0.42708490    -0.22500
C1635       C  0.22234751  0.75355817  0.44626244    -0.02400
C1636       C  0.20623285  0.77239330  0.44007473    -0.16900
H1637       H  0.18115144  0.80109986  0.40411592     0.21100
H1638       H  0.24552022  0.73961711  0.37808423     0.19500
H1639       H  0.23269750  0.75833564  0.33010023     0.19400
H1640       H  0.19410669  0.78280808  0.45197502     0.15300
C1641       C  0.24162483  0.51813151  0.57955126     0.30700
C1642       C  0.24312951  0.53589266  0.56104467    -0.35600
C1643       C  0.24456898  0.56039822  0.56881042     0.16700
C1644       C  0.24463515  0.56698019  0.59312152     0.22500
C1645       C  0.24303220  0.54918609  0.61165081    -0.33700
C1646       C  0.24144407  0.52464191  0.60390246     0.16600
O1647       O  0.24068559  0.49417765  0.57634955    -0.25700
C1648       C  0.23958329  0.48522402  0.59890282     0.06400
C1649       C  0.24008654  0.50323030  0.61687822    -0.30600
O1650       O  0.24625939  0.59097622  0.59623180    -0.22500
C1651       C  0.24717617  0.59989928  0.57362599    -0.02400
C1652       C  0.24617046  0.58168903  0.55581662    -0.16900
H1653       H  0.24327489  0.53092772  0.54191872     0.21100
H1654       H  0.24307783  0.55413818  0.63077185     0.19500
H1655       H  0.24030507  0.50091492  0.63645797     0.19400
H1656       H  0.24651352  0.58381062  0.53619047     0.15300
C1657       C  0.14356847  0.74401159  0.40914435     0.30700
C1658       C  0.13470240  0.75138022  0.38631796    -0.35600
C1659       C  0.14774221  0.74250418  0.36595768     0.16700
C1660       C  0.16834341  0.72772978  0.36786668     0.22500
C1661       C  0.17695610  0.72002298  0.39068953    -0.33700
C1662       C  0.16368192  0.72859162  0.41103903     0.16600
O1663       O  0.13515885  0.75132589  0.43058637    -0.25700
C1664       C  0.14991967  0.74024724  0.44642188     0.06400
C1665       C  0.16787067  0.72568308  0.43527792    -0.30600
O1666       O  0.17828287  0.72245812  0.34644130    -0.22500
C1667       C  0.16356335  0.73365978  0.33061402    -0.02400
C1668       C  0.14421882  0.74630375  0.34172869    -0.16900
H1669       H  0.11900329  0.76353741  0.38456268     0.21100
H1670       H  0.19316840  0.70857494  0.39248976     0.19500
H1671       H  0.18282420  0.71572569  0.44372509     0.19400
H1672       H  0.12990559  0.75711209  0.33319400     0.15300
C1673       C  0.17290146  0.62142720  0.49312850     0.30700
C1674       C  0.18253264  0.64322840  0.50291642    -0.35600
C1675       C  0.17171219  0.66514021  0.49482639     0.16700
C1676       C  0.15290250  0.66571518  0.47798475     0.22500
C1677       C  0.14311057  0.64382568  0.46832031    -0.33700
C1678       C  0.15372677  0.62180154  0.47667915     0.16600
O1679       O  0.18033250  0.59894380  0.49821436    -0.25700
C1680       C  0.16558591  0.58455036  0.48511183     0.06400
C1681       C  0.14858046  0.59776737  0.47138776    -0.30600
O1682       O  0.14536175  0.68835336  0.47332402    -0.22500
C1683       C  0.15945385  0.70239227  0.48751639    -0.02400
C1684       C  0.17604820  0.68886660  0.50135575    -0.16900
H1685       H  0.19730744  0.64310474  0.51612135     0.21100
H1686       H  0.12808567  0.64394527  0.45538305     0.19500
H1687       H  0.13476217  0.59071698  0.45903137     0.19400
H1688       H  0.18910665  0.69555352  0.51465484     0.15300
C1689       C  0.00204275  0.24422630  0.36681388     0.30700
C1690       C  0.99283591  0.23818154  0.38998537    -0.35600
C1691       C  0.00943586  0.24069874  0.40929166     0.16700
C1692       C  0.03324470  0.24929936  0.40619483     0.22500
C1693       C  0.04247760  0.25531229  0.38297837    -0.33700
C1694       C  0.02606239  0.25216074  0.36353946     0.16600
O1695       O  0.99017941  0.24172479  0.34607954    -0.25700
C1696       C  0.00690110  0.24777549  0.32926792     0.06400
C1697       C  0.02955825  0.25448490  0.33902740    -0.30600
O1698       O  0.04533686  0.25076442  0.42695044    -0.22500
C1699       C  0.02918221  0.24249775  0.44336566    -0.02400
C1700       C  0.00660196  0.23586986  0.43344228    -0.16900
H1701       H  0.97419673  0.23149280  0.39269760     0.21100
H1702       H  0.06128383  0.26154034  0.38021319     0.19500
H1703       H  0.04634525  0.25951158  0.32941078     0.19400
H1704       H  0.99030986  0.22918304  0.44281720     0.15300
C1705       C  0.05779086  0.32470075  0.47140946     0.30700
C1706       C  0.05929354  0.35008202  0.47612378    -0.35600
C1707       C  0.07997373  0.36235963  0.46633777     0.16700
C1708       C  0.09801837  0.35038334  0.45301216     0.22500
C1709       C  0.09618349  0.32517629  0.44779385    -0.33700
C1710       C  0.07544064  0.31297200  0.45738807     0.16600
O1711       O  0.04163416  0.30918593  0.48098585    -0.25700
C1712       C  0.04863596  0.28728756  0.47250602     0.06400
C1713       C  0.06961572  0.28859369  0.45777145    -0.30600
O1714       O  0.11695654  0.36474841  0.44769248    -0.22500
C1715       C  0.11090754  0.38638514  0.45738636    -0.02400
C1716       C  0.08796957  0.38604116  0.46906281    -0.16900
H1717       H  0.04585470  0.35939207  0.48755927     0.21100
H1718       H  0.11052784  0.31550114  0.43782554     0.19500
H1719       H  0.08036034  0.27356344  0.45031567     0.19400
H1720       H  0.07919647  0.40067067  0.47931376     0.15300
C1721       C  0.10869588  0.86616005  0.45688184     0.30700
C1722       C  0.12671380  0.85549702  0.47183990    -0.35600
C1723       C  0.13096969  0.83024152  0.46847773     0.16700
C1724       C  0.11858305  0.81636685  0.45141990     0.22500
C1725       C  0.10085384  0.82710645  0.43617377    -0.33700
C1726       C  0.09634124  0.85229157  0.43975595     0.16600
O1727       O  0.09982332  0.88872929  0.45883363    -0.25700
C1728       C  0.08144207  0.88930100  0.44283414     0.06400
C1729       C  0.07855235  0.86716549  0.43039871    -0.30600
O1730       O  0.12351871  0.79263395  0.45322976    -0.22500
C1731       C  0.13941671  0.79119379  0.47160779    -0.02400
C1732       C  0.14471123  0.81414289  0.48165741    -0.16900
H1733       H  0.13578423  0.86586247  0.48608388     0.21100
H1734       H  0.09026145  0.81626464  0.42337257     0.19500
H1735       H  0.06436109  0.86227370  0.41743918     0.19400
H1736       H  0.15589623  0.81823708  0.49744076     0.15300
C1737       C  0.02659091  0.16367260  0.46875944     0.30700
C1738       C  0.03676858  0.14202835  0.45881477    -0.35600
C1739       C  0.02506879  0.11985194  0.46537379     0.16700
C1740       C  0.00449136  0.11906928  0.48033372     0.22500
C1741       C  0.99449631  0.14064181  0.49048157    -0.33700
C1742       C  0.00641856  0.16273129  0.48424342     0.16600
O1743       O  0.03523713  0.18628153  0.46601994    -0.25700
C1744       C  0.02053245  0.19997218  0.48012121     0.06400
C1745       C  0.00236240  0.18622998  0.49194538    -0.30600
O1746       O  0.99629054  0.09645305  0.48384329    -0.22500
C1747       C  0.01198549  0.08240445  0.47124744    -0.02400
C1748       C  0.03036492  0.09599214  0.45948346    -0.16900
H1749       H  0.05294125  0.14241185  0.44710602     0.21100
H1750       H  0.97871167  0.14020327  0.50269451     0.19500
H1751       H  0.98868674  0.19257243  0.50498141     0.19400
H1752       H  0.04522604  0.08928478  0.44797802     0.15300
C1753       C  0.85343865  0.91065002  0.47019146     0.30700
C1754       C  0.83020138  0.90879745  0.48155911    -0.35600
C1755       C  0.81429504  0.89075457  0.47224056     0.16700
C1756       C  0.82061652  0.87587453  0.45274673     0.22500
C1757       C  0.84389790  0.87755175  0.44156404    -0.33700
C1758       C  0.85991449  0.89528101  0.45115705     0.16600
O1759       O  0.87133812  0.92605452  0.47601598    -0.25700
C1760       C  0.88956493  0.92019564  0.46067703     0.06400
C1761       C  0.88346618  0.90117987  0.44485808    -0.30600
O1762       O  0.80254970  0.86101962  0.44630945    -0.22500
C1763       C  0.78462571  0.86621021  0.46216817    -0.02400
C1764       C  0.79084689  0.88443195  0.47879730    -0.16900
H1765       H  0.82489691  0.92057306  0.49663520     0.21100
H1766       H  0.84915623  0.86586361  0.42640885     0.19500
H1767       H  0.89477243  0.89290205  0.43071584     0.19400
H1768       H  0.77938786  0.89243990  0.49297453     0.15300
C1769       C  0.33727353  0.43167871  0.47570099     0.30700
C1770       C  0.35694829  0.41631971  0.46869636    -0.35600
C1771       C  0.38076631  0.42520040  0.47363815     0.16700
C1772       C  0.38483790  0.44768356  0.48461905     0.22500
C1773       C  0.36524155  0.46287739  0.49178381    -0.33700
C1774       C  0.34153667  0.45396766  0.48692640     0.16600
O1775       O  0.31350421  0.42738323  0.47244821    -0.25700
C1776       C  0.30251426  0.44716534  0.48182992     0.06400
C1777       C  0.31908348  0.46422742  0.49116779    -0.30600
O1778       O  0.40844872  0.45256975  0.48732955    -0.22500
C1779       C  0.41964128  0.43300152  0.47797947    -0.02400
C1780       C  0.40350838  0.41522929  0.46928536    -0.16900
H1781       H  0.35391334  0.39879762  0.45990334     0.21100
H1782       H  0.36828155  0.48045108  0.50048905     0.19500
H1783       H  0.31522099  0.48183206  0.49951989     0.19400
H1784       H  0.40791257  0.39770135  0.46104414     0.15300
C1785       C  0.45693437  0.46539398  0.40135184     0.30700
C1786       C  0.46391694  0.48080294  0.38197893    -0.35600
C1787       C  0.45348893  0.47541714  0.35924109     0.16700
C1788       C  0.43754778  0.45597784  0.35563518     0.22500
C1789       C  0.43027550  0.44075389  0.37514896    -0.33700
C1790       C  0.44044200  0.44637085  0.39803386     0.16600
O1791       O  0.46558598  0.46627769  0.42375703    -0.25700
C1792       C  0.45416431  0.44789708  0.43522031     0.06400
C1793       C  0.43824928  0.43487201  0.42009382    -0.30600
O1794       O  0.43073913  0.45386219  0.33259489    -0.22500
C1795       C  0.44224070  0.47240800  0.32141815    -0.02400
C1796       C  0.45656044  0.48644534  0.33714770    -0.16900
H1797       H  0.47690383  0.49572038  0.38438771     0.21100
H1798       H  0.41781970  0.42540989  0.37261001     0.19500
H1799       H  0.42791838  0.41836090  0.42419744     0.19400
H1800       H  0.46786542  0.50227802  0.33283856     0.15300
C1801       C  0.44465337  0.64604082  0.17113479     0.30700
C1802       C  0.45827412  0.66796289  0.17271034    -0.35600
C1803       C  0.45117255  0.68687315  0.15681601     0.16700
C1804       C  0.43164907  0.68452225  0.14088097     0.22500
C1805       C  0.41821579  0.66258613  0.13916658    -0.33700
C1806       C  0.42562399  0.64357089  0.15468555     0.16600
O1807       O  0.44816458  0.62590014  0.18407718    -0.25700
C1808       C  0.43135580  0.61029285  0.17553924     0.06400
C1809       C  0.41686853  0.62029346  0.15721489    -0.30600
O1810       O  0.42744976  0.70478376  0.12846241    -0.22500
C1811       C  0.44481620  0.72012471  0.13618544    -0.02400
C1812       C  0.46018574  0.71008122  0.15376956    -0.16900
H1813       H  0.47336014  0.67010431  0.18538303     0.21100
H1814       H  0.40302481  0.66049565  0.12659958     0.19500
H1815       H  0.40197975  0.61168664  0.14727720     0.19400
H1816       H  0.47509376  0.71891807  0.16346806     0.15300
C1817       C  0.37740275  0.32805430  0.98505274     0.30700
C1818       C  0.36448716  0.30611251  0.98962286    -0.35600
C1819       C  0.33865051  0.30758929  0.98841984     0.16700
C1820       C  0.32648661  0.32924153  0.98327921     0.22500
C1821       C  0.33935250  0.35111489  0.97872069    -0.33700
C1822       C  0.36510846  0.34960958  0.97968841     0.16600
O1823       O  0.40157732  0.33091413  0.98502138    -0.25700
C1824       C  0.40458491  0.35447937  0.97932967     0.06400
C1825       C  0.38268003  0.36710468  0.97586036    -0.30600
O1826       O  0.30237196  0.32655636  0.98290661    -0.22500
C1827       C  0.29890243  0.30287645  0.98775040    -0.02400
C1828       C  0.32081345  0.29006812  0.99138168    -0.16900
H1829       H  0.37392673  0.28906743  0.99365660     0.21100
H1830       H  0.32990588  0.36810884  0.97451046     0.19500
H1831       H  0.38017775  0.38628554  0.97131324     0.19400
H1832       H  0.32322776  0.27076919  0.99550534     0.15300
C1833       C  0.41198832  0.39218135  0.05072185     0.30700
C1834       C  0.39571750  0.40685201  0.06443614    -0.35600
C1835       C  0.40184425  0.41036780  0.08903103     0.16700
C1836       C  0.42221429  0.39963730  0.09964978     0.22500
C1837       C  0.43840218  0.38484751  0.08596368    -0.33700
C1838       C  0.43264770  0.38187541  0.06120999     0.16600
O1839       O  0.41152747  0.38913252  0.02684162    -0.25700
C1840       C  0.43224418  0.37690780  0.02193862     0.06400
C1841       C  0.44611473  0.37193053  0.04260126    -0.30600
O1842       O  0.42568464  0.40717303  0.12227549    -0.22500
C1843       C  0.40746671  0.42313353  0.12611372    -0.02400
C1844       C  0.39208405  0.42584528  0.10606529    -0.16900
H1845       H  0.38023792  0.41616199  0.05612736     0.21100
H1846       H  0.45517033  0.37746001  0.09370988     0.19500
H1847       H  0.46428865  0.36372107  0.04350931     0.19400
H1848       H  0.37681962  0.43848196  0.10390273     0.15300
C1849       C  0.44202761  0.38271832  0.59477393     0.30700
C1850       C  0.45686935  0.40081604  0.58384697    -0.35600
C1851       C  0.45184552  0.40613411  0.55934210     0.16700
C1852       C  0.43305219  0.39501687  0.54653161     0.22500
C1853       C  0.41815830  0.37689672  0.55748462    -0.33700
C1854       C  0.42364891  0.37103821  0.58183614     0.16600
O1855       O  0.44439321  0.37399227  0.61711069    -0.25700
C1856       C  0.42754688  0.35622060  0.61843853     0.06400
C1857       C  0.41415458  0.35350432  0.59699867    -0.30600
O1858       O  0.43258864  0.40190002  0.52339773    -0.22500
C1859       C  0.45153416  0.41741516  0.52133181    -0.02400
C1860       C  0.46417880  0.42057737  0.54313072    -0.16900
H1861       H  0.47190717  0.40950613  0.59350934     0.21100
H1862       H  0.40391773  0.36735692  0.54743987     0.19500
H1863       H  0.39964977  0.34040270  0.59312321     0.19400
H1864       H  0.48068127  0.43128036  0.54637786     0.15300
C1865       C  0.41683135  0.33532562  0.85754236     0.30700
C1866       C  0.40892178  0.33181744  0.88174714    -0.35600
C1867       C  0.42076339  0.34616016  0.89944559     0.16700
C1868       C  0.43922581  0.36266387  0.89372281     0.22500
C1869       C  0.44694481  0.36640280  0.86948302    -0.33700
C1870       C  0.43497909  0.35219363  0.85175085     0.16600
O1871       O  0.40885459  0.32328047  0.83826474    -0.25700
C1872       C  0.42183458  0.33271867  0.81980332     0.06400
C1873       C  0.43834967  0.35085839  0.82708693    -0.30600
O1874       O  0.44870644  0.37309062  0.91323901    -0.22500
C1875       C  0.43606190  0.36336512  0.93181546    -0.02400
C1876       C  0.41832891  0.34646822  0.92422451    -0.16900
H1877       H  0.39481673  0.31853004  0.88648991     0.21100
H1878       H  0.46155361  0.37917482  0.86483321     0.19500
H1879       H  0.45133624  0.36107684  0.81594801     0.19400
H1880       H  0.40619752  0.33508301  0.93510577     0.15300
C1881       C  0.39875754  0.14026110  0.71545031     0.30700
C1882       C  0.40119227  0.11923331  0.72999475    -0.35600
C1883       C  0.40947492  0.09799501  0.71803929     0.16700
C1884       C  0.41478767  0.09734266  0.69337295     0.22500
C1885       C  0.41201789  0.11833237  0.67873586    -0.33700
C1886       C  0.40388887  0.13967356  0.69075875     0.16600
O1887       O  0.39306813  0.16246237  0.72325763    -0.25700
C1888       C  0.39447060  0.17634965  0.70333599     0.06400
C1889       C  0.40094622  0.16311973  0.68250657    -0.30600
O1890       O  0.42275745  0.07558017  0.68614266    -0.22500
C1891       C  0.42271139  0.06232269  0.70651376    -0.02400
C1892       C  0.41447311  0.07520814  0.72687515    -0.16900
H1893       H  0.39753696  0.11958429  0.74942916     0.21100
H1894       H  0.41644871  0.11818544  0.65945026     0.19500
H1895       H  0.40425089  0.16997494  0.66424796     0.19400
H1896       H  0.41244322  0.06862794  0.74540434     0.15300
loop_ 
_geom_bond_atom_site_label_1 
_geom_bond_atom_site_label_2 
_geom_bond_distance 
_geom_bond_site_symmetry_2 
_ccdc_geom_bond_type 
N1            N2   1.323       .  A
N1            C5   1.350       .  A
N1           Cu9   2.094       .  S
N2            C3   1.344       .  A
N2           Cu8   2.070       .  S
C3            C4   1.380       .  A
C3            H6   1.082       .  S
C4            C5   1.388       .  A
C4         C1872   1.474       .  S
C5            H7   1.082       .  S
Cu8          N11   2.070       .  S
Cu9          N19   2.095       .  S
Cu10         N12   2.078       .  S
Cu10         N18   2.079       .  S
N11          N12   1.321       .  A
N11          C15   1.344       .  A
N12          C13   1.347       .  A
C13          C14   1.386       .  A
C13          H16   1.082       .  S
C14          C15   1.382       .  A
C14        C1888   1.473       .  S
C15          H17   1.082       .  S
N18          N19   1.324       .  A
N18          C22   1.346       .  A
N19          C20   1.349       .  A
C20          C21   1.385       .  A
C20          H23   1.081       .  S
C21          C22   1.383       .  A
C21        C1856   1.476       .  S
C22          H24   1.081       .  S
N25          C29   1.352       .  A
N25          C26   1.357       .  A
N25        C1824   1.429       .  S
C26          C27   1.384       .  A
C26        C1875   1.484       .  S
C27          C28   1.379       .  A
C27          H30   1.082       .  S
C28          C29   1.381       .  A
C28          H31   1.082       .  S
C29        C1840   1.474   1_556  S
N32          N33   1.324       .  A
N32          C36   1.350       .  A
N32         Cu40   2.096       .  S
N33          C34   1.344       .  A
N33         Cu39   2.079       .  S
C34          C35   1.382       .  A
C34          H37   1.083       .  S
C35          C36   1.386       .  A
C35        C1795   1.477       .  S
C36          H38   1.082       .  S
Cu39         N42   2.078       .  S
Cu40         N50   2.095       .  S
Cu41         N43   2.068       .  S
Cu41         N49   2.068       .  S
N42          N43   1.321       .  A
N42          C46   1.348       .  A
N43          C44   1.344       .  A
C44          C45   1.383       .  A
C44          H47   1.081       .  S
C45          C46   1.384       .  A
C45        C1808   1.472       .  S
C46          H48   1.081       .  S
N49          N50   1.323       .  A
N49          C53   1.343       .  A
N50          C51   1.350       .  A
C51          C52   1.387       .  A
C51          H54   1.082       .  S
C52          C53   1.380       .  A
C52        C1843   1.473       .  S
C53          H55   1.082       .  S
N56          C60   1.356       .  A
N56          C57   1.357       .  A
N56        C1779   1.431       .  S
C57          C58   1.381       .  A
C57        C1792   1.480       .  S
C58          C59   1.376       .  A
C58          H61   1.082       .  S
C59          C60   1.384       .  A
C59          H62   1.082       .  S
C60        C1859   1.483       .  S
N63          N64   1.326   1_455  A
N63          C67   1.351       .  A
N63         Cu71   2.109   1_545  S
N64          C65   1.348       .  A
N64         Cu70   2.093   1_545  S
C65          C66   1.383   1_655  A
C65          H68   1.082       .  S
C66          C67   1.388       .  A
C66        C1747   1.483       .  S
C67          H69   1.082       .  S
Cu70         N73   2.091       .  S
Cu71         N81   2.107       .  S
Cu72         N74   2.056       .  S
Cu72         N80   2.055   1_655  S
N73          N74   1.321       .  A
N73          C77   1.351       .  A
N74          C75   1.340       .  A
C75          C76   1.379       .  A
C75          H78   1.082       .  S
C76          C77   1.388       .  A
C76        C1760   1.472       .  S
C77          H79   1.083       .  S
N80          N81   1.321       .  A
N80          C84   1.342       .  A
N81          C82   1.353       .  A
C82          C83   1.392       .  A
C82          H85   1.082       .  S
C83          C84   1.380       .  A
C83        C1728   1.478       .  S
C84          H86   1.082       .  S
N87          C91   1.358       .  A
N87          C88   1.358       .  A
N87        C1699   1.435       .  S
C88          C89   1.383       .  A
C88        C1744   1.484       .  S
C89          C90   1.379       .  A
C89          H92   1.082       .  S
C90          C91   1.382       .  A
C90          H93   1.082       .  S
C91        C1712   1.482       .  S
N94          N95   1.326       .  A
N94          C98   1.351       .  A
N94        Cu102   2.108       .  S
N95          C96   1.346       .  A
N95        Cu101   2.083       .  S
C96          C97   1.381       .  A
C96          H99   1.082       .  S
C97          C98   1.389       .  A
C97        C1715   1.480       .  S
C98         H100   1.082       .  S
Cu101       N104   2.082       .  S
Cu102       N112   2.106       .  S
Cu103       N105   2.062       .  S
Cu103       N111   2.061       .  S
N104        N105   1.321       .  A
N104        C108   1.349       .  A
N105        C106   1.341       .  A
C106        C107   1.381       .  A
C106        H109   1.082       .  S
C107        C108   1.386       .  A
C107       C1776   1.472       .  S
C108        H110   1.081       .  S
N111        N112   1.322       .  A
N111        C115   1.343       .  A
N112        C113   1.353       .  A
C113        C114   1.392       .  A
C113        H116   1.082       .  S
C114        C115   1.380       .  A
C114       C1680   1.479       .  S
C115        H117   1.082       .  S
N118        C122   1.363       .  A
N118        C119   1.361       .  A
N118       C1664   1.440       .  S
C119        C120   1.381       .  A
C119       C1683   1.483       .  S
C120        C121   1.374       .  A
C120        H123   1.082       .  S
C121        C122   1.385       .  A
C121        H124   1.082       .  S
C122       C1731   1.490       .  S
N125        N126   1.323       .  A
N125        C129   1.348       .  A
N125       Cu133   2.081       .  S
N126        C127   1.346       .  A
N126       Cu132   2.084       .  S
C127        C128   1.383       .  A
C127        H130   1.082       .  S
C128        C129   1.385       .  A
C128       C1619   1.475       .  S
C129        H131   1.082       .  S
Cu132       N135   2.084       .  S
Cu133       N143   2.081       .  S
Cu134       N136   2.078       .  S
Cu134       N142   2.078       .  S
N135        N136   1.323       .  A
N135        C139   1.347       .  A
N136        C137   1.347       .  A
C137        C138   1.385       .  A
C137        H140   1.081       .  S
C138        C139   1.384       .  A
C138       C1651   1.476       .  S
C139        H141   1.082       .  S
N142        N143   1.323       .  A
N142        C146   1.346       .  A
N143        C144   1.346       .  A
C144        C145   1.383       .  A
C144        H147   1.082       .  S
C145        C146   1.382       .  A
C145       C1635   1.471       .  S
C146        H148   1.082       .  S
N149        C153   1.352       .  A
N149        C150   1.354       .  A
N149       C1584   1.432       .  S
C150        C151   1.381       .  A
C150       C1632   1.473       .  S
C151        C152   1.378       .  A
C151        H154   1.081       .  S
C152        C153   1.381       .  A
C152        H155   1.082       .  S
C153       C1600   1.469       .  S
N156        N157   1.323       .  A
N156        C160   1.347   1_554  A
N156       Cu164   2.084       .  S
N157        C158   1.344   1_554  A
N157       Cu163   2.071       .  S
C158        C159   1.380       .  A
C158        H161   1.082       .  S
C159        C160   1.385       .  A
C159       C1555   1.470       .  S
C160        H162   1.082       .  S
Cu163       N166   2.070       .  S
Cu164       N174   2.085       .  S
Cu165       N167   2.082       .  S
Cu165       N173   2.083       .  S
N166        N167   1.321       .  A
N166        C170   1.344   1_565  A
N167        C168   1.349   1_565  A
C168        C169   1.387       .  A
C168        H171   1.082       .  S
C169        C170   1.382       .  A
C169       C1568   1.473       .  S
C170        H172   1.082       .  S
N173        N174   1.324       .  A
N173        C177   1.343       .  A
N174        C175   1.350       .  A
C175        C176   1.386       .  A
C175        H178   1.082       .  S
C176        C177   1.381       .  A
C176       C1603   1.473       .  S
C177        H179   1.082       .  S
N180        C184   1.355       .  A
N180        C181   1.355       .  A
N180       C1539   1.434       .  S
C181        C182   1.381       .  A
C181       C1552   1.474       .  S
C182        C183   1.377       .  A
C182        H185   1.082       .  S
C183        C184   1.381       .  A
C183        H186   1.082       .  S
C184       C1616   1.473       .  S
N187        N188   1.322       .  A
N187        C191   1.349       .  A
N187       Cu195   2.088       .  S
N188        C189   1.342       .  A
N188       Cu194   2.059       .  S
C189        C190   1.378       .  A
C189        H192   1.082       .  S
C190        C191   1.387       .  A
C190       C1504   1.469       .  S
C191        H193   1.081       .  S
Cu194       N197   2.061       .  S
Cu195       N205   2.091       .  S
Cu196       N198   2.095       .  S
Cu196       N204   2.096       .  S
N197        N198   1.322       .  A
N197        C201   1.341       .  A
N198        C199   1.352       .  A
C199        C200   1.389       .  A
C199        H202   1.082       .  S
C200        C201   1.381       .  A
C200       C1523   1.477       .  S
C201        H203   1.083       .  S
N204        N205   1.325       .  A
N204        C208   1.347       .  A
N205        C206   1.350       .  A
C206        C207   1.386       .  A
C206        H209   1.082       .  S
C207        C208   1.384       .  A
C207       C1491   1.480       .  S
C208        H210   1.082       .  S
N211        C215   1.357       .  A
N211        C212   1.357       .  A
N211       C1459   1.441       .  S
C212        C213   1.386       .  A
C212       C1507   1.478       .  S
C213        C214   1.373       .  A
C213        H216   1.081       .  S
C214        C215   1.378       .  A
C214        H217   1.082       .  S
C215       C1475   1.469   1_556  S
N218        N219   1.323       .  A
N218        C222   1.347       .  A
N218       Cu226   2.085       .  S
N219        C220   1.346       .  A
N219       Cu225   2.079       .  S
C220        C221   1.382       .  A
C220        H223   1.083       .  S
C221        C222   1.386       .  A
C221       C1427   1.476       .  S
C222        H224   1.082       .  S
Cu225       N228   2.078       .  S
Cu226       N236   2.084       .  S
Cu227       N229   2.059       .  S
Cu227       N235   2.059       .  S
N228        N229   1.321       .  A
N228        C232   1.345   1_565  A
N229        C230   1.345   1_565  A
C230        C231   1.381       .  A
C230        H233   1.081       .  S
C231        C232   1.386       .  A
C231       C1443   1.471       .  S
C232        H234   1.081       .  S
N235        N236   1.323       .  A
N235        C239   1.341       .  A
N236        C237   1.348       .  A
C237        C238   1.385       .  A
C237        H240   1.082       .  S
C238        C239   1.378       .  A
C238       C1472   1.467       .  S
C239        H241   1.082       .  S
N242        C246   1.356       .  A
N242        C243   1.357       .  A
N242       C1763   1.434       .  S
C243        C244   1.382       .  A
C243       C1424   1.480       .  S
C244        C245   1.379       .  A
C244        H247   1.082       .  S
C245        C246   1.381       .  A
C245        H248   1.082       .  S
C246       C1488   1.477       .  S
N249        N250   1.324       .  A
N249        C253   1.351       .  A
N249       Cu257   2.098       .  S
N250        C251   1.344       .  A
N250       Cu256   2.074   1_554  S
C251        C252   1.381       .  A
C251        H254   1.082       .  S
C252        C253   1.389       .  A
C252       C1379   1.477       .  S
C253        H255   1.082       .  S
Cu256       N259   2.074       .  S
Cu257       N267   2.098       .  S
Cu258       N260   2.085       .  S
Cu258       N266   2.086   1_556  S
N259        N260   1.322       .  A
N259        C263   1.347       .  A
N260        C261   1.346       .  A
C261        C262   1.385       .  A
C261        H264   1.082       .  S
C262        C263   1.383       .  A
C262       C1408   1.474       .  S
C263        H265   1.081       .  S
N266        N267   1.324       .  A
N266        C270   1.347       .  A
N267        C268   1.350       .  A
C268        C269   1.387       .  A
C268        H271   1.082       .  S
C269        C270   1.385       .  A
C269       C1395   1.482       .  S
C270        H272   1.083   1_554  S
N273        C277   1.358       .  A
N273        C274   1.361       .  A
N273       C1571   1.439       .  S
C274        C275   1.382       .  A
C274       C1392   1.484       .  S
C275        C276   1.377       .  A
C275        H278   1.082       .  S
C276        C277   1.382       .  A
C276        H279   1.082       .  S
C277       C1360   1.480       .  S
N280        N281   1.324       .  A
N280        C284   1.353       .  A
N280       Cu288   2.109       .  S
N281        C282   1.340       .  A
N281       Cu287   2.059       .  S
C282        C283   1.379       .  A
C282        H285   1.082       .  S
C283        C284   1.390       .  A
C283       C1344   1.477       .  S
C284        H286   1.082       .  S
Cu287       N290   2.058       .  S
Cu288       N298   2.110   1_655  S
Cu289       N291   2.071       .  S
Cu289       N297   2.071       .  S
N290        N291   1.319   1_655  A
N290        C294   1.343       .  A
N291        C292   1.345       .  A
C292        C293   1.384       .  A
C292        H295   1.082       .  S
C293        C294   1.381   1_455  A
C293       C1696   1.466       .  S
C294        H296   1.083       .  S
N297        N298   1.325       .  A
N297        C301   1.343       .  A
N298        C299   1.353       .  A
C299        C300   1.390       .  A
C299        H302   1.082       .  S
C300        C301   1.380       .  A
C300       C1363   1.479       .  S
C301        H303   1.081       .  S
N304        C308   1.359       .  A
N304        C305   1.357       .  A
N304       C1440   1.433       .  S
C305        C306   1.380       .  A
C305       C1347   1.480       .  S
C306        C307   1.375       .  A
C306        H309   1.082       .  S
C307        C308   1.382       .  A
C307        H310   1.082       .  S
C308       C1376   1.478       .  S
N311        N312   1.323       .  A
N311        C315   1.344       .  A
N311       Cu319   2.079       .  S
N312        C313   1.346       .  A
N312       Cu318   2.073       .  S
C313        C314   1.381       .  A
C313        H316   1.081       .  S
C314        C315   1.383       .  A
C314       C1312   1.469       .  S
C315        H317   1.082       .  S
Cu318       N321   2.072       .  S
Cu319       N329   2.078       .  S
Cu320       N322   2.073       .  S
Cu320       N328   2.073       .  S
N321        N322   1.322       .  A
N321        C325   1.345       .  A
N322        C323   1.345       .  A
C323        C324   1.383       .  A
C323        H326   1.082       .  S
C324        C325   1.384       .  A
C324       C1328   1.471       .  S
C325        H327   1.082       .  S
N328        N329   1.322       .  A
N328        C332   1.343       .  A
N329        C330   1.348       .  A
C330        C331   1.385       .  A
C330        H333   1.082       .  S
C331        C332   1.381       .  A
C331       C1299   1.471       .  S
C332        H334   1.082       .  S
N335        C339   1.350       .  A
N335        C336   1.353       .  A
N335       C1267   1.428       .  S
C336        C337   1.382   1_545  A
C336       C1315   1.475       .  S
C337        C338   1.380   1_565  A
C337        H340   1.082       .  S
C338        C339   1.381       .  A
C338        H341   1.082   1_545  S
C339       C1280   1.469       .  S
N342        N343   1.325       .  A
N342        C346   1.345       .  A
N342       Cu350   2.082       .  S
N343        C344   1.347       .  A
N343       Cu349   2.083       .  S
C344        C345   1.383       .  A
C344        H347   1.081       .  S
C345        C346   1.383       .  A
C345       C1283   1.472       .  S
C346        H348   1.082       .  S
Cu349       N352   2.083       .  S
Cu350       N360   2.080       .  S
Cu351       N353   2.055       .  S
Cu351       N359   2.054       .  S
N352        N353   1.322       .  A
N352        C356   1.348       .  A
N353        C354   1.340       .  A
C354        C355   1.379       .  A
C354        H357   1.082   1_545  S
C355        C356   1.386       .  A
C355       C1251   1.469       .  S
C356        H358   1.081       .  S
N359        N360   1.320       .  A
N359        C363   1.341       .  A
N360        C361   1.348       .  A
C361        C362   1.386       .  A
C361        H364   1.082       .  S
C362        C363   1.381       .  A
C362       C1232   1.470       .  S
C363        H365   1.082       .  S
N366        C370   1.359       .  A
N366        C367   1.357       .  A
N366       C1891   1.437       .  S
C367        C368   1.380   1_545  A
C367       C1235   1.475       .  S
C368        C369   1.374   1_565  A
C368        H371   1.082       .  S
C369        C370   1.381       .  A
C369        H372   1.082   1_545  S
C370       C1296   1.476       .  S
N373        N374   1.322   1_455  A
N373        C377   1.354       .  A
N373       Cu381   2.110       .  S
N374        C375   1.340       .  A
N374       Cu380   2.056   1_554  S
C375        C376   1.378       .  A
C375        H378   1.082   1_554  S
C376        C377   1.392   1_655  A
C376       C1216   1.478   1_655  S
C377        H379   1.082       .  S
Cu380       N383   2.056       .  S
Cu381       N391   2.114       .  S
Cu382       N384   2.082   1_554  S
Cu382       N390   2.084   1_655  S
N383        N384   1.320       .  A
N383        C387   1.342       .  A
N384        C385   1.348       .  A
C385        C386   1.388       .  A
C385        H388   1.082       .  S
C386        C387   1.379       .  A
C386       C1456   1.471       .  S
C387        H389   1.082       .  S
N390        N391   1.325       .  A
N390        C394   1.345       .  A
N391        C392   1.354       .  A
C392        C393   1.391       .  A
C392        H395   1.082       .  S
C393        C394   1.381       .  A
C393       C1203   1.483       .  S
C394        H396   1.082       .  S
N397        C401   1.360       .  A
N397        C398   1.363       .  A
N397       C1168   1.440   1_554  S
C398        C399   1.385       .  A
C398       C1219   1.487       .  S
C399        C400   1.376       .  A
C399        H402   1.082       .  S
C400        C401   1.379       .  A
C400        H403   1.082       .  S
C401       C1184   1.480       .  S
N404        N405   1.322   1_554  A
N404        C408   1.354       .  A
N404       Cu412   2.108       .  S
N405        C406   1.341       .  A
N405       Cu411   2.054       .  S
C406        C407   1.378   1_556  A
C406        H409   1.082       .  S
C407        C408   1.393       .  A
C407       C1187   1.478       .  S
C408        H410   1.082       .  S
Cu411       N414   2.054       .  S
Cu412       N422   2.110       .  S
Cu413       N415   2.074       .  S
Cu413       N421   2.076   1_556  S
N414        N415   1.320       .  A
N414        C418   1.340       .  A
N415        C416   1.349       .  A
C416        C417   1.387       .  A
C416        H419   1.079       .  S
C417        C418   1.378       .  A
C417       C1827   1.468       .  S
C418        H420   1.082       .  S
N421        N422   1.326       .  A
N421        C425   1.346       .  A
N422        C423   1.349       .  A
C423        C424   1.385       .  A
C423        H426   1.082       .  S
C424        C425   1.380       .  A
C424       C1155   1.475       .  S
C425        H427   1.081   1_554  S
N428        C432   1.358       .  A
N428        C429   1.356   1_565  A
N428       C1248   1.432       .  S
C429        C430   1.382       .  A
C429       C1152   1.483       .  S
C430        C431   1.380   1_545  A
C430        H433   1.082       .  S
C431        C432   1.383       .  A
C431        H434   1.082       .  S
C432       C1200   1.486       .  S
N435        N436   1.326       .  A
N435        C439   1.349       .  A
N435       Cu443   2.098       .  S
N436        C437   1.344       .  A
N436       Cu442   2.077       .  S
C437        C438   1.378       .  A
C437        H440   1.080       .  S
C438        C439   1.384       .  A
C438       C1123   1.469       .  S
C439        H441   1.082       .  S
Cu442       N445   2.076       .  S
Cu443       N453   2.096       .  S
Cu444       N446   2.062       .  S
Cu444       N452   2.062       .  S
N445        N446   1.320       .  A
N445        C449   1.349       .  A
N446        C447   1.341       .  A
C447        C448   1.381       .  A
C447        H450   1.081       .  S
C448        C449   1.386       .  A
C448       C1139   1.472       .  S
C449        H451   1.082       .  S
N452        N453   1.322       .  A
N452        C456   1.341       .  A
N453        C454   1.352       .  A
C454        C455   1.389       .  A
C454        H457   1.082       .  S
C455        C456   1.380       .  A
C455       C1107   1.476       .  S
C456        H458   1.081       .  S
N459        C463   1.356       .  A
N459        C460   1.354       .  A
N459       C1648   1.435       .  S
C460        C461   1.380       .  A
C460       C1120   1.474       .  S
C461        C462   1.377       .  A
C461        H464   1.082       .  S
C462        C463   1.382       .  A
C462        H465   1.082       .  S
C463       C1091   1.473       .  S
N466        N467   1.323       .  A
N466        C470   1.348       .  A
N466       Cu474   2.082   1_655  S
N467        C468   1.341       .  A
N467       Cu473   2.062       .  S
C468        C469   1.377       .  A
C468        H471   1.082       .  S
C469        C470   1.385       .  A
C469       C1072   1.466       .  S
C470        H472   1.082       .  S
Cu473       N476   2.063   1_655  S
Cu474       N484   2.082       .  S
Cu475       N477   2.077       .  S
Cu475       N483   2.078       .  S
N476        N477   1.321       .  A
N476        C480   1.345   1_455  A
N477        C478   1.345       .  A
C478        C479   1.385       .  A
C478        H481   1.082       .  S
C479        C480   1.381   1_455  A
C479       C1171   1.472       .  S
C480        H482   1.082       .  S
N483        N484   1.323       .  A
N483        C487   1.346       .  A
N484        C485   1.346       .  A
C485        C486   1.385       .  A
C485        H488   1.082       .  S
C486        C487   1.382       .  A
C486       C1088   1.475       .  S
C487        H489   1.082       .  S
N490        C494   1.358       .  A
N490        C491   1.360       .  A
N490       C1520   1.440       .  S
C491        C492   1.381       .  A
C491       C1075   1.476       .  S
C492        C493   1.374       .  A
C492        H495   1.082       .  S
C493        C494   1.383       .  A
C493        H496   1.082       .  S
C494       C1104   1.480       .  S
N497        N498   1.322       .  A
N497        C501   1.348       .  A
N497       Cu505   2.085       .  S
N498        C499   1.344       .  A
N498       Cu504   2.067       .  S
C499        C500   1.382       .  A
C499        H502   1.082       .  S
C500        C501   1.385       .  A
C500       C1040   1.472       .  S
C501        H503   1.082       .  S
Cu504       N507   2.067       .  S
Cu505       N515   2.086       .  S
Cu506       N508   2.080       .  S
Cu506       N514   2.080       .  S
N507        N508   1.321       .  A
N507        C511   1.343       .  A
N508        C509   1.348       .  A
C509        C510   1.385       .  A
C509        H512   1.082       .  S
C510        C511   1.382       .  A
C510       C1667   1.471       .  S
C511        H513   1.081       .  S
N514        N515   1.324       .  A
N514        C518   1.345       .  A
N515        C516   1.348       .  A
C516        C517   1.384       .  A
C516        H519   1.082       .  S
C517        C518   1.383       .  A
C517       C1056   1.475       .  S
C518        H520   1.081       .  S
N521        C525   1.355       .  A
N521        C522   1.353       .  A
N521       C1811   1.433       .  S
C522        C523   1.382       .  A
C522       C1059   1.476       .  S
C523        C524   1.379       .  A
C523        H526   1.082       .  S
C524        C525   1.383       .  A
C524        H527   1.082       .  S
C525       C1024   1.476       .  S
N528        N529   1.324   1_554  A
N528        C532   1.349       .  A
N528       Cu536   2.092       .  S
N529        C530   1.344       .  A
N529       Cu535   2.074       .  S
C530        C531   1.380   1_556  A
C530        H533   1.082       .  S
C531        C532   1.386       .  A
C531        C992   1.474       .  S
C532        H534   1.082       .  S
Cu535       N538   2.073       .  S
Cu536       N546   2.092       .  S
Cu537       N539   2.068       .  S
Cu537       N545   2.068   1_556  S
N538        N539   1.321       .  A
N538        C542   1.347       .  A
N539        C540   1.343       .  A
C540        C541   1.383       .  A
C540        H543   1.079       .  S
C541        C542   1.383       .  A
C541       C1008   1.472       .  S
C542        H544   1.087       .  S
N545        N546   1.323       .  A
N545        C549   1.345       .  A
N546        C547   1.348       .  A
C547        C548   1.388       .  A
C547        H550   1.082       .  S
C548        C549   1.381       .  A
C548       C1027   1.475       .  S
C549        H551   1.082       .  S
N552        C556   1.358       .  A
N552        C553   1.358       .  A
N552        C976   1.438       .  S
C553        C554   1.380       .  A
C553        C995   1.474       .  S
C554        C555   1.376       .  A
C554        H557   1.082       .  S
C555        C556   1.382       .  A
C555        H558   1.082       .  S
C556       C1043   1.475       .  S
N559        N560   1.324       .  A
N559        C563   1.350       .  A
N559       Cu567   2.108       .  S
N560        C561   1.344       .  A
N560       Cu566   2.063       .  S
C561        C562   1.380       .  A
C561        H564   1.081       .  S
C562        C563   1.389       .  A
C562        C963   1.477       .  S
C563        H565   1.082       .  S
Cu566       N569   2.062       .  S
Cu567       N577   2.109       .  S
Cu568       N570   2.081       .  S
Cu568       N576   2.082       .  S
N569        N570   1.320       .  A
N569        C573   1.343       .  A
N570        C571   1.349       .  A
C571        C572   1.387       .  A
C571        H574   1.081       .  S
C572        C573   1.383       .  A
C572       C1587   1.474       .  S
C573        H575   1.084       .  S
N576        N577   1.325       .  A
N576        C580   1.342       .  A
N577        C578   1.355       .  A
C578        C579   1.391       .  A
C578        H581   1.082       .  S
C579        C580   1.383       .  A
C579        C947   1.486       .  S
C580        H582   1.081       .  S
N583        C587   1.357       .  A
N583        C584   1.359       .  A
N583       C1136   1.437       .  S
C584        C585   1.383       .  A
C584        C960   1.476       .  S
C585        C586   1.373       .  A
C585        H588   1.082       .  S
C586        C587   1.380       .  A
C586        H589   1.082       .  S
C587        C928   1.476       .  S
N590        N591   1.325       .  A
N590        C594   1.348       .  A
N590       Cu598   2.092       .  S
N591        C592   1.345       .  A
N591       Cu597   2.080       .  S
C592        C593   1.381       .  A
C592        H595   1.081       .  S
C593        C594   1.386       .  A
C593        C896   1.474       .  S
C594        H596   1.082       .  S
Cu597       N600   2.078       .  S
Cu598       N608   2.091       .  S
Cu599       N601   2.062       .  S
Cu599       N607   2.063       .  S
N600        N601   1.321       .  A
N600        C604   1.348       .  A
N601        C602   1.342       .  A
C602        C603   1.379       .  A
C602        H605   1.082       .  S
C603        C604   1.386       .  A
C603        C915   1.469       .  S
C604        H606   1.082       .  S
N607        N608   1.322       .  A
N607        C611   1.342       .  A
N608        C609   1.350       .  A
C609        C610   1.388       .  A
C609        H612   1.082       .  S
C610        C611   1.379       .  A
C610        C931   1.473       .  S
C611        H613   1.082       .  S
N614        C618   1.359       .  A
N614        C615   1.360       .  A
N614       C1331   1.434       .  S
C615        C616   1.380       .  A
C615        C899   1.479       .  S
C616        C617   1.374       .  A
C616        H619   1.082       .  S
C617        C618   1.381       .  A
C617        H620   1.082       .  S
C618        C944   1.479       .  S
N621        N622   1.322       .  A
N621        C625   1.348       .  A
N621       Cu629   2.085       .  S
N622        C623   1.343       .  A
N622       Cu628   2.063       .  S
C623        C624   1.379       .  A
C623        H626   1.082       .  S
C624        C625   1.384       .  A
C624        C867   1.468       .  S
C625        H627   1.082       .  S
Cu628       N631   2.063       .  S
Cu629       N639   2.085       .  S
Cu630       N632   2.086       .  S
Cu630       N638   2.087       .  S
N631        N632   1.321       .  A
N631        C635   1.343       .  A
N632        C633   1.348       .  A
C633        C634   1.386       .  A
C633        H636   1.082       .  S
C634        C635   1.382       .  A
C634        C883   1.474       .  S
C635        H637   1.082       .  S
N638        N639   1.324       .  A
N638        C642   1.346       .  A
N639        C640   1.348       .  A
C640        C641   1.384       .  A
C640        H643   1.082       .  S
C641        C642   1.385       .  A
C641        C851   1.477       .  S
C642        H644   1.082       .  S
N645        C649   1.355       .  A
N645        C646   1.356       .  A
N645       C1011   1.431       .  S
C646        C647   1.385       .  A
C646        C864   1.481       .  S
C647        C648   1.378       .  A
C647        H650   1.082       .  S
C648        C649   1.380       .  A
C648        H651   1.082       .  S
C649        C832   1.476       .  S
N652        N653   1.323       .  A
N652        C656   1.349       .  A
N652       Cu660   2.095       .  S
N653        C654   1.345       .  A
N653       Cu659   2.072       .  S
C654        C655   1.382   1_565  A
C654        H657   1.082   1_565  S
C655        C656   1.386   1_545  A
C655        C816   1.475       .  S
C656        H658   1.082       .  S
Cu659       N662   2.071       .  S
Cu660       N670   2.095       .  S
Cu661       N663   2.077       .  S
Cu661       N669   2.077       .  S
N662        N663   1.322       .  A
N662        C666   1.346       .  A
N663        C664   1.346       .  A
C664        C665   1.383       .  A
C664        H667   1.082       .  S
C665        C666   1.383       .  A
C665       C1536   1.471       .  S
C666        H668   1.082       .  S
N669        N670   1.324       .  A
N669        C673   1.346       .  A
N670        C671   1.349       .  A
C671        C672   1.387       .  A
C671        H674   1.082       .  S
C672        C673   1.381       .  A
C672        C835   1.476       .  S
C673        H675   1.082       .  S
N676        C680   1.357       .  A
N676        C677   1.357       .  A
N676       C1411   1.439       .  S
C677        C678   1.380       .  A
C677        C819   1.473       .  S
C678        C679   1.375       .  A
C678        H681   1.082       .  S
C679        C680   1.382       .  A
C679        H682   1.082       .  S
C680        C848   1.472       .  S
N683        N684   1.323       .  A
N683        C687   1.350       .  A
N683       Cu691   2.100       .  S
N684        C685   1.341       .  A
N684       Cu690   2.056       .  S
C685        C686   1.375       .  A
C685        H688   1.081       .  S
C686        C687   1.388       .  A
C686        C803   1.469       .  S
C687        H689   1.082       .  S
Cu690       N693   2.056       .  S
Cu691       N701   2.101       .  S
Cu692       N694   2.065       .  S
Cu692       N700   2.067       .  S
N693        N694   1.320       .  A
N693        C697   1.344       .  A
N694        C695   1.343       .  A
C695        C696   1.381       .  A
C695        H698   1.082       .  S
C696        C697   1.382       .  A
C696       C1264   1.465       .  S
C697        H699   1.081       .  S
N700        N701   1.324       .  A
N700        C704   1.342       .  A
N701        C702   1.351       .  A
C702        C703   1.387       .  A
C702        H705   1.082       .  S
C703        C704   1.380       .  A
C703        C787   1.475       .  S
C704        H706   1.081       .  S
N707        C711   1.353       .  A
N707        C708   1.356       .  A
N707        C912   1.430       .  S
C708        C709   1.382   1_655  A
C708        C800   1.478       .  S
C709        C710   1.378       .  A
C709        H712   1.082       .  S
C710        C711   1.381   1_455  A
C710        H713   1.082       .  S
C711        C768   1.475       .  S
N714        N715   1.321       .  A
N714        C718   1.352       .  A
N714       Cu722   2.097   1_556  S
N715        C716   1.341       .  A
N715       Cu721   2.059   1_556  S
C716        C717   1.379       .  A
C716        H719   1.080       .  S
C717        C718   1.391       .  A
C717        C752   1.477       .  S
C718        H720   1.082       .  S
Cu721       N724   2.059       .  S
Cu722       N732   2.099       .  S
Cu723       N725   2.078       .  S
Cu723       N731   2.081       .  S
N724        N725   1.320       .  A
N724        C728   1.341       .  A
N725        C726   1.349       .  A
C726        C727   1.387       .  A
C726        H729   1.081       .  S
C727        C728   1.382       .  A
C727        C979   1.473       .  S
C728        H730   1.082       .  S
N731        N732   1.326       .  A
N731        C735   1.346       .  A
N732        C733   1.348       .  A
C733        C734   1.386       .  A
C733        H736   1.082       .  S
C734        C735   1.380       .  A
C734        C771   1.475       .  S
C735        H737   1.082       .  S
N738        C742   1.363       .  A
N738        C739   1.356       .  A
N738        C880   1.438       .  S
C739        C740   1.380   1_655  A
C739        C755   1.475       .  S
C740        C741   1.375       .  A
C740        H743   1.082       .  S
C741        C742   1.386   1_455  A
C741        H744   1.082       .  S
C742        C784   1.488       .  S
C745        C750   1.380       .  A
C745        C746   1.404       .  A
C745        O751   1.323       .  A
C746        C747   1.405       .  A
C746        H757   1.083   1_655  S
C747        C756   1.360       .  A
C747        C748   1.381       .  A
C748        C749   1.404       .  A
C748        O754   1.323       .  A
C749        C750   1.405       .  A
C749        H758   1.083       .  S
C750        C753   1.360       .  A
O751        C752   1.331       .  A
C752        C753   1.393       .  A
C753        H759   1.083       .  S
O754        C755   1.331       .  A
C755        C756   1.390       .  A
C756        H760   1.083   1_655  S
C761        C766   1.380       .  A
C761        C762   1.403       .  A
C761        O767   1.318       .  A
C762        C763   1.402       .  A
C762        H773   1.083       .  S
C763        C772   1.362       .  A
C763        C764   1.380       .  A
C764        C765   1.407       .  A
C764        O770   1.321       .  A
C765        C766   1.406       .  A
C765        H774   1.083       .  S
C766        C769   1.366       .  A
O767        C768   1.330       .  A
C768        C769   1.393       .  A
C769        H775   1.083       .  S
O770        C771   1.333       .  A
C771        C772   1.390       .  A
C772        H776   1.083       .  S
C777        C782   1.378       .  A
C777        C778   1.402       .  A
C777        O783   1.317       .  A
C778        C779   1.402       .  A
C778        H789   1.083       .  S
C779        C788   1.359       .  A
C779        C780   1.380       .  A
C780        C781   1.406       .  A
C780        O786   1.322       .  A
C781        C782   1.406       .  A
C781        H790   1.082   1_655  S
C782        C785   1.363       .  A
O783        C784   1.328       .  A
C784        C785   1.397       .  A
C785        H791   1.082   1_655  S
O786        C787   1.332       .  A
C787        C788   1.391       .  A
C788        H792   1.083       .  S
C793        C798   1.379       .  A
C793        C794   1.403   1_655  A
C793        O799   1.316   1_655  A
C794        C795   1.401   1_455  A
C794        H805   1.082       .  S
C795        C804   1.364       .  A
C795        C796   1.380       .  A
C796        C797   1.407       .  A
C796        O802   1.319       .  A
C797        C798   1.404       .  A
C797        H806   1.082       .  S
C798        C801   1.367       .  A
O799        C800   1.330   1_455  A
C800        C801   1.394       .  A
C801        H807   1.082       .  S
O802        C803   1.332       .  A
C803        C804   1.389       .  A
C804        H808   1.082   1_655  S
C809        C814   1.380       .  A
C809        C810   1.403       .  A
C809        O815   1.320       .  A
C810        C811   1.403       .  A
C810        H821   1.082       .  S
C811        C820   1.360       .  A
C811        C812   1.381       .  A
C812        C813   1.405       .  A
C812        O818   1.322       .  A
C813        C814   1.405       .  A
C813        H822   1.082       .  S
C814        C817   1.362       .  A
O815        C816   1.330       .  A
C816        C817   1.393       .  A
C817        H823   1.082       .  S
O818        C819   1.331       .  A
C819        C820   1.390       .  A
C820        H824   1.082       .  S
C825        C830   1.380       .  A
C825        C826   1.404       .  A
C825        O831   1.318       .  A
C826        C827   1.403       .  A
C826        H837   1.083       .  S
C827        C836   1.364       .  A
C827        C828   1.380       .  A
C828        C829   1.406       .  A
C828        O834   1.321       .  A
C829        C830   1.405       .  A
C829        H838   1.083       .  S
C830        C833   1.366       .  A
O831        C832   1.331       .  A
C832        C833   1.392       .  A
C833        H839   1.082       .  S
O834        C835   1.333       .  A
C835        C836   1.391       .  A
C836        H840   1.083       .  S
C841        C846   1.380       .  A
C841        C842   1.404       .  A
C841        O847   1.320       .  A
C842        C843   1.403       .  A
C842        H853   1.084       .  S
C843        C852   1.362       .  A
C843        C844   1.380       .  A
C844        C845   1.406       .  A
C844        O850   1.322       .  A
C845        C846   1.405       .  A
C845        H854   1.084       .  S
C846        C849   1.363       .  A
O847        C848   1.330       .  A
C848        C849   1.392       .  A
C849        H855   1.083       .  S
O850        C851   1.333       .  A
C851        C852   1.392       .  A
C852        H856   1.083       .  S
C857        C862   1.380       .  A
C857        C858   1.404       .  A
C857        O863   1.322       .  A
C858        C859   1.405       .  A
C858        H869   1.084       .  S
C859        C868   1.362       .  A
C859        C860   1.381       .  A
C860        C861   1.401       .  A
C860        O866   1.320       .  A
C861        C862   1.402       .  A
C861        H870   1.084       .  S
C862        C865   1.358       .  A
O863        C864   1.332       .  A
C864        C865   1.392       .  A
C865        H871   1.083       .  S
O866        C867   1.329       .  A
C867        C868   1.392       .  A
C868        H872   1.083       .  S
C873        C878   1.380       .  A
C873        C874   1.403       .  A
C873        O879   1.319       .  A
C874        C875   1.402       .  A
C874        H885   1.082       .  S
C875        C884   1.360       .  A
C875        C876   1.380       .  A
C876        C877   1.405       .  A
C876        O882   1.321       .  A
C877        C878   1.404       .  A
C877        H886   1.082       .  S
C878        C881   1.363       .  A
O879        C880   1.329       .  A
C880        C881   1.392       .  A
C881        H887   1.082       .  S
O882        C883   1.332       .  A
C883        C884   1.391       .  A
C884        H888   1.082       .  S
C889        C894   1.380       .  A
C889        C890   1.406       .  A
C889        O895   1.319       .  A
C890        C891   1.404       .  A
C890        H901   1.082       .  S
C891        C900   1.367       .  A
C891        C892   1.379       .  A
C892        C893   1.405       .  A
C892        O898   1.318       .  A
C893        C894   1.403       .  A
C893        H902   1.082       .  S
C894        C897   1.364       .  A
O895        C896   1.332       .  A
C896        C897   1.392       .  A
C897        H903   1.082       .  S
O898        C899   1.332       .  A
C899        C900   1.392       .  A
C900        H904   1.081       .  S
C905        C910   1.382       .  A
C905        C906   1.404       .  A
C905        O911   1.318       .  A
C906        C907   1.403       .  A
C906        H917   1.083       .  S
C907        C916   1.364       .  A
C907        C908   1.381       .  A
C908        C909   1.402       .  A
C908        O914   1.316       .  A
C909        C910   1.400       .  A
C909        H918   1.083       .  S
C910        C913   1.362       .  A
O911        C912   1.329       .  A
C912        C913   1.387       .  A
C913        H919   1.082       .  S
O914        C915   1.330       .  A
C915        C916   1.391       .  A
C916        H920   1.083       .  S
C921        C926   1.380       .  A
C921        C922   1.408       .  A
C921        O927   1.323       .  A
C922        C923   1.407       .  A
C922        H933   1.083       .  S
C923        C932   1.368       .  A
C923        C924   1.380       .  A
C924        C925   1.400       .  A
C924        O930   1.316       .  A
C925        C926   1.399       .  A
C925        H934   1.084       .  S
C926        C929   1.357       .  A
O927        C928   1.333       .  A
C928        C929   1.389       .  A
C929        H935   1.083       .  S
O930        C931   1.329       .  A
C931        C932   1.393       .  A
C932        H936   1.082       .  S
C937        C942   1.380       .  A
C937        C938   1.399       .  A
C937        O943   1.315   1_565  A
C938        C939   1.398       .  A
C938        H949   1.083       .  S
C939        C948   1.356       .  A
C939        C940   1.379       .  A
C940        C941   1.414       .  A
C940        O946   1.329       .  A
C941        C942   1.414       .  A
C941        H950   1.083       .  S
C942        C945   1.374   1_565  A
O943        C944   1.329       .  A
C944        C945   1.396       .  A
C945        H951   1.083       .  S
O946        C947   1.337       .  A
C947        C948   1.391       .  A
C948        H952   1.082       .  S
C953        C958   1.380       .  A
C953        C954   1.407       .  A
C953        O959   1.324       .  A
C954        C955   1.408       .  A
C954        H965   1.081       .  S
C955        C964   1.364       .  A
C955        C956   1.380       .  A
C956        C957   1.401       .  A
C956        O962   1.320       .  A
C957        C958   1.402       .  A
C957        H966   1.081       .  S
C958        C961   1.357       .  A
O959        C960   1.333       .  A
C960        C961   1.390       .  A
C961        H967   1.082       .  S
O962        C963   1.329       .  A
C963        C964   1.396       .  A
C964        H968   1.082       .  S
C969        C974   1.380       .  A
C969        C970   1.401       .  A
C969        O975   1.318       .  A
C970        C971   1.401       .  A
C970        H981   1.081       .  S
C971        C980   1.358       .  A
C971        C972   1.380       .  A
C972        C973   1.405       .  A
C972        O978   1.322       .  A
C973        C974   1.405       .  A
C973        H982   1.081       .  S
C974        C977   1.364       .  A
O975        C976   1.329       .  A
C976        C977   1.392       .  A
C977        H983   1.080       .  S
O978        C979   1.332       .  A
C979        C980   1.391       .  A
C980        H984   1.081       .  S
C985        C990   1.380       .  A
C985        C986   1.405       .  A
C985        O991   1.318       .  A
C986        C987   1.403       .  A
C986        H997   1.082   1_554  S
C987        C996   1.364       .  A
C987        C988   1.379       .  A
C988        C989   1.405       .  A
C988        O994   1.318       .  A
C989        C990   1.403       .  A
C989        H998   1.082       .  S
C990        C993   1.365       .  A
O991        C992   1.331       .  A
C992        C993   1.392       .  A
C993        H999   1.082       .  S
O994        C995   1.332       .  A
C995        C996   1.390       .  A
C996       H1000   1.082       .  S
C1001      C1006   1.380       .  A
C1001      C1002   1.404       .  A
C1001      O1007   1.320       .  A
C1002      C1003   1.404       .  A
C1002      H1013   1.080       .  S
C1003      C1012   1.362       .  A
C1003      C1004   1.382       .  A
C1004      C1005   1.401       .  A
C1004      O1010   1.318       .  A
C1005      C1006   1.401       .  A
C1005      H1014   1.082       .  S
C1006      C1009   1.358       .  A
O1007      C1008   1.331       .  A
C1008      C1009   1.390       .  A
C1009      H1015   1.083       .  S
O1010      C1011   1.327       .  A
C1011      C1012   1.389       .  A
C1012      H1016   1.081       .  S
C1017      C1022   1.380       .  A
C1017      C1018   1.404       .  A
C1017      O1023   1.318       .  A
C1018      C1019   1.402       .  A
C1018      H1029   1.083       .  S
C1019      C1028   1.363       .  A
C1019      C1020   1.380       .  A
C1020      C1021   1.406       .  A
C1020      O1026   1.321       .  A
C1021      C1022   1.405       .  A
C1021      H1030   1.083       .  S
C1022      C1025   1.365       .  A
O1023      C1024   1.331       .  A
C1024      C1025   1.392       .  A
C1025      H1031   1.083       .  S
O1026      C1027   1.333       .  A
C1027      C1028   1.390       .  A
C1028      H1032   1.083       .  S
C1033      C1038   1.381       .  A
C1033      C1034   1.402       .  A
C1033      O1039   1.320       .  A
C1034      C1035   1.402       .  A
C1034      H1045   1.083       .  S
C1035      C1044   1.358       .  A
C1035      C1036   1.379       .  A
C1036      C1037   1.404       .  A
C1036      O1042   1.320   1_455  A
C1037      C1038   1.404       .  A
C1037      H1046   1.083       .  S
C1038      C1041   1.361       .  A
O1039      C1040   1.330       .  A
C1040      C1041   1.392       .  A
C1041      H1047   1.082       .  S
O1042      C1043   1.330       .  A
C1043      C1044   1.390   1_655  A
C1044      H1048   1.078       .  S
C1049      C1054   1.380       .  A
C1049      C1050   1.404       .  A
C1049      O1055   1.321       .  A
C1050      C1051   1.403       .  A
C1050      H1061   1.082       .  S
C1051      C1060   1.361       .  A
C1051      C1052   1.381       .  A
C1052      C1053   1.404       .  A
C1052      O1058   1.321       .  A
C1053      C1054   1.404       .  A
C1053      H1062   1.083       .  S
C1054      C1057   1.362       .  A
O1055      C1056   1.331       .  A
C1056      C1057   1.392       .  A
C1057      H1063   1.082       .  S
O1058      C1059   1.331       .  A
C1059      C1060   1.390       .  A
C1060      H1064   1.082       .  S
C1065      C1070   1.380       .  A
C1065      C1066   1.404       .  A
C1065      O1071   1.316       .  A
C1066      C1067   1.401       .  A
C1066      H1077   1.081       .  S
C1067      C1076   1.364       .  A
C1067      C1068   1.379       .  A
C1068      C1069   1.404       .  A
C1068      O1074   1.316       .  A
C1069      C1070   1.402       .  A
C1069      H1078   1.082       .  S
C1070      C1073   1.364       .  A
O1071      C1072   1.330       .  A
C1072      C1073   1.390       .  A
C1073      H1079   1.082       .  S
O1074      C1075   1.332       .  A
C1075      C1076   1.392       .  A
C1076      H1080   1.081       .  S
C1081      C1086   1.380       .  A
C1081      C1082   1.405       .  A
C1081      O1087   1.320       .  A
C1082      C1083   1.405       .  A
C1082      H1093   1.082       .  S
C1083      C1092   1.364       .  A
C1083      C1084   1.380       .  A
C1084      C1085   1.404       .  A
C1084      O1090   1.319       .  A
C1085      C1086   1.403       .  A
C1085      H1094   1.082       .  S
C1086      C1089   1.362       .  A
O1087      C1088   1.332       .  A
C1088      C1089   1.391       .  A
C1089      H1095   1.082       .  S
O1090      C1091   1.331       .  A
C1091      C1092   1.391       .  A
C1092      H1096   1.081       .  S
C1097      C1102   1.380       .  A
C1097      C1098   1.402       .  A
C1097      O1103   1.320       .  A
C1098      C1099   1.403       .  A
C1098      H1109   1.083       .  S
C1099      C1108   1.359       .  A
C1099      C1100   1.381       .  A
C1100      C1101   1.405       .  A
C1100      O1106   1.323       .  A
C1101      C1102   1.405       .  A
C1101      H1110   1.083       .  S
C1102      C1105   1.361       .  A
O1103      C1104   1.331       .  A
C1104      C1105   1.393       .  A
C1105      H1111   1.082       .  S
O1106      C1107   1.332       .  A
C1107      C1108   1.391       .  A
C1108      H1112   1.083       .  S
C1113      C1118   1.381       .  A
C1113      C1114   1.404       .  A
C1113      O1119   1.320       .  A
C1114      C1115   1.403       .  A
C1114      H1125   1.083       .  S
C1115      C1124   1.361       .  A
C1115      C1116   1.381       .  A
C1116      C1117   1.404       .  A
C1116      O1122   1.320       .  A
C1117      C1118   1.403       .  A
C1117      H1126   1.082       .  S
C1118      C1121   1.362       .  A
O1119      C1120   1.331       .  A
C1120      C1121   1.390       .  A
C1121      H1127   1.082       .  S
O1122      C1123   1.330       .  A
C1123      C1124   1.390       .  A
C1124      H1128   1.082       .  S
C1129      C1134   1.381       .  A
C1129      C1130   1.400       .  A
C1129      O1135   1.316       .  A
C1130      C1131   1.400       .  A
C1130      H1141   1.081       .  S
C1131      C1140   1.357       .  A
C1131      C1132   1.380       .  A
C1132      C1133   1.407       .  A
C1132      O1138   1.323       .  A
C1133      C1134   1.407       .  A
C1133      H1142   1.081       .  S
C1134      C1137   1.367       .  A
O1135      C1136   1.329       .  A
C1136      C1137   1.392       .  A
C1137      H1143   1.081       .  S
O1138      C1139   1.333       .  A
C1139      C1140   1.390       .  A
C1140      H1144   1.082       .  S
C1145      C1150   1.380       .  A
C1145      C1146   1.408       .  A
C1145      O1151   1.324       .  A
C1146      C1147   1.408       .  A
C1146      H1157   1.084   1_554  S
C1147      C1156   1.366       .  A
C1147      C1148   1.380       .  A
C1148      C1149   1.402       .  A
C1148      O1154   1.320       .  A
C1149      C1150   1.402       .  A
C1149      H1158   1.084       .  S
C1150      C1153   1.360       .  A
O1151      C1152   1.334       .  A
C1152      C1153   1.390       .  A
C1153      H1159   1.083       .  S
O1154      C1155   1.330       .  A
C1155      C1156   1.394       .  A
C1156      H1160   1.083   1_554  S
C1161      C1166   1.379       .  A
C1161      C1162   1.403       .  A
C1161      O1167   1.319       .  A
C1162      C1163   1.402       .  A
C1162      H1173   1.082       .  S
C1163      C1172   1.360       .  A
C1163      C1164   1.380       .  A
C1164      C1165   1.404       .  A
C1164      O1170   1.320       .  A
C1165      C1166   1.404       .  A
C1165      H1174   1.081   1_455  S
C1166      C1169   1.361       .  A
O1167      C1168   1.330       .  A
C1168      C1169   1.391       .  A
C1169      H1175   1.080   1_455  S
O1170      C1171   1.331       .  A
C1171      C1172   1.390       .  A
C1172      H1176   1.082       .  S
C1177      C1182   1.379       .  A
C1177      C1178   1.408       .  A
C1177      O1183   1.322       .  A
C1178      C1179   1.406       .  A
C1178      H1189   1.083       .  S
C1179      C1188   1.369       .  A
C1179      C1180   1.380       .  A
C1180      C1181   1.404   1_554  A
C1180      O1186   1.318   1_554  A
C1181      C1182   1.402   1_556  A
C1181      H1190   1.083       .  S
C1182      C1185   1.363       .  A
O1183      C1184   1.334       .  A
C1184      C1185   1.391       .  A
C1185      H1191   1.083       .  S
O1186      C1187   1.332   1_556  A
C1187      C1188   1.393       .  A
C1188      H1192   1.082       .  S
C1193      C1198   1.379       .  A
C1193      C1194   1.410       .  A
C1193      O1199   1.323       .  A
C1194      C1195   1.409       .  A
C1194      H1205   1.083       .  S
C1195      C1204   1.371       .  A
C1195      C1196   1.380       .  A
C1196      C1197   1.406       .  A
C1196      O1202   1.320       .  A
C1197      C1198   1.404       .  A
C1197      H1206   1.083   1_554  S
C1198      C1201   1.366       .  A
O1199      C1200   1.335       .  A
C1200      C1201   1.393       .  A
C1201      H1207   1.083       .  S
O1202      C1203   1.332       .  A
C1203      C1204   1.395       .  A
C1204      H1208   1.083       .  S
C1209      C1214   1.380       .  A
C1209      C1210   1.407       .  A
C1209      O1215   1.325       .  A
C1210      C1211   1.407       .  A
C1210      H1221   1.081       .  S
C1211      C1220   1.362       .  A
C1211      C1212   1.379       .  A
C1212      C1213   1.403       .  A
C1212      O1218   1.321       .  A
C1213      C1214   1.404       .  A
C1213      H1222   1.082   1_454  S
C1214      C1217   1.359   1_455  A
O1215      C1216   1.333       .  A
C1216      C1217   1.392   1_455  A
C1217      H1223   1.082   1_554  S
O1218      C1219   1.330       .  A
C1219      C1220   1.396       .  A
C1220      H1224   1.082       .  S
C1225      C1230   1.380       .  A
C1225      C1226   1.405       .  A
C1225      O1231   1.321       .  A
C1226      C1227   1.405       .  A
C1226      H1237   1.082       .  S
C1227      C1236   1.364       .  A
C1227      C1228   1.380       .  A
C1228      C1229   1.400       .  A
C1228      O1234   1.316       .  A
C1229      C1230   1.399       .  A
C1229      H1238   1.082   1_545  S
C1230      C1233   1.357       .  A
O1231      C1232   1.331       .  A
C1232      C1233   1.390       .  A
C1233      H1239   1.082   1_545  S
O1234      C1235   1.329       .  A
C1235      C1236   1.394       .  A
C1236      H1240   1.082       .  S
C1241      C1246   1.382   1_565  A
C1241      C1242   1.401       .  A
C1241      O1247   1.318       .  A
C1242      C1243   1.401       .  A
C1242      H1253   1.083       .  S
C1243      C1252   1.358       .  A
C1243      C1244   1.381   1_565  A
C1244      C1245   1.402       .  A
C1244      O1250   1.320       .  A
C1245      C1246   1.402       .  A
C1245      H1254   1.083       .  S
C1246      C1249   1.360       .  A
O1247      C1248   1.328   1_556  A
C1248      C1249   1.389   1_564  A
C1249      H1255   1.082   1_556  S
O1250      C1251   1.330       .  A
C1251      C1252   1.391   1_545  A
C1252      H1256   1.082       .  S
C1257      C1262   1.381       .  A
C1257      C1258   1.401       .  A
C1257      O1263   1.316       .  A
C1258      C1259   1.400       .  A
C1258      H1269   1.083       .  S
C1259      C1268   1.360       .  A
C1259      C1260   1.382       .  A
C1260      C1261   1.402       .  A
C1260      O1266   1.317       .  A
C1261      C1262   1.401       .  A
C1261      H1270   1.083       .  S
C1262      C1265   1.361       .  A
O1263      C1264   1.329       .  A
C1264      C1265   1.391       .  A
C1265      H1271   1.083       .  S
O1266      C1267   1.328       .  A
C1267      C1268   1.387       .  A
C1268      H1272   1.082       .  S
C1273      C1278   1.381   1_455  A
C1273      C1274   1.402       .  A
C1273      O1279   1.318   1_455  A
C1274      C1275   1.401       .  A
C1274      H1285   1.083       .  S
C1275      C1284   1.360       .  A
C1275      C1276   1.380       .  A
C1276      C1277   1.405       .  A
C1276      O1282   1.321       .  A
C1277      C1278   1.405   1_455  A
C1277      H1286   1.083       .  S
C1278      C1281   1.364       .  A
O1279      C1280   1.329       .  A
C1280      C1281   1.391       .  A
C1281      H1287   1.083       .  S
O1282      C1283   1.332       .  A
C1283      C1284   1.390       .  A
C1284      H1288   1.083       .  S
C1289      C1294   1.379       .  A
C1289      C1290   1.406       .  A
C1289      O1295   1.318       .  A
C1290      C1291   1.404       .  A
C1290      H1301   1.081       .  S
C1291      C1300   1.366       .  A
C1291      C1292   1.380       .  A
C1292      C1293   1.401       .  A
C1292      O1298   1.316       .  A
C1293      C1294   1.400       .  A
C1293      H1302   1.082       .  S
C1294      C1297   1.361       .  A
O1295      C1296   1.333       .  A
C1296      C1297   1.390       .  A
C1297      H1303   1.080       .  S
O1298      C1299   1.329       .  A
C1299      C1300   1.393       .  A
C1300      H1304   1.082       .  S
C1305      C1310   1.380       .  A
C1305      C1306   1.406       .  A
C1305      O1311   1.320       .  A
C1306      C1307   1.405       .  A
C1306      H1317   1.083       .  S
C1307      C1316   1.364       .  A
C1307      C1308   1.380       .  A
C1308      C1309   1.400       .  A
C1308      O1314   1.316       .  A
C1309      C1310   1.399       .  A
C1309      H1318   1.082       .  S
C1310      C1313   1.358       .  A
O1311      C1312   1.332       .  A
C1312      C1313   1.389       .  A
C1313      H1319   1.082       .  S
O1314      C1315   1.329       .  A
C1315      C1316   1.394       .  A
C1316      H1320   1.082       .  S
C1321      C1326   1.380       .  A
C1321      C1322   1.403       .  A
C1321      O1327   1.319       .  A
C1322      C1323   1.402       .  A
C1322      H1333   1.082       .  S
C1323      C1332   1.362       .  A
C1323      C1324   1.381       .  A
C1324      C1325   1.404       .  A
C1324      O1330   1.319       .  A
C1325      C1326   1.403       .  A
C1325      H1334   1.082       .  S
C1326      C1329   1.362       .  A
O1327      C1328   1.331       .  A
C1328      C1329   1.392       .  A
C1329      H1335   1.082       .  S
O1330      C1331   1.329       .  A
C1331      C1332   1.389       .  A
C1332      H1336   1.082       .  S
C1337      C1342   1.380       .  A
C1337      C1338   1.408       .  A
C1337      O1343   1.325       .  A
C1338      C1339   1.408       .  A
C1338      H1349   1.082       .  S
C1339      C1348   1.367       .  A
C1339      C1340   1.380       .  A
C1340      C1341   1.400       .  A
C1340      O1346   1.317       .  A
C1341      C1342   1.400       .  A
C1341      H1350   1.083       .  S
C1342      C1345   1.357       .  A
O1343      C1344   1.333       .  A
C1344      C1345   1.391       .  A
C1345      H1351   1.083       .  S
O1346      C1347   1.330       .  A
C1347      C1348   1.395       .  A
C1348      H1352   1.082       .  S
C1353      C1358   1.380       .  A
C1353      C1354   1.405       .  A
C1353      O1359   1.323       .  A
C1354      C1355   1.405       .  A
C1354      H1365   1.082       .  S
C1355      C1364   1.361       .  A
C1355      C1356   1.380       .  A
C1356      C1357   1.406       .  A
C1356      O1362   1.324       .  A
C1357      C1358   1.406       .  A
C1357      H1366   1.083       .  S
C1358      C1361   1.362       .  A
O1359      C1360   1.331       .  A
C1360      C1361   1.392       .  A
C1361      H1367   1.081       .  S
O1362      C1363   1.332       .  A
C1363      C1364   1.393       .  A
C1364      H1368   1.082       .  S
C1369      C1374   1.379       .  A
C1369      C1370   1.407       .  A
C1369      O1375   1.320       .  A
C1370      C1371   1.406       .  A
C1370      H1381   1.082       .  S
C1371      C1380   1.367       .  A
C1371      C1372   1.380       .  A
C1372      C1373   1.404       .  A
C1372      O1378   1.318       .  A
C1373      C1374   1.403       .  A
C1373      H1382   1.082       .  S
C1374      C1377   1.363       .  A
O1375      C1376   1.334       .  A
C1376      C1377   1.390       .  A
C1377      H1383   1.080       .  S
O1378      C1379   1.331       .  A
C1379      C1380   1.393       .  A
C1380      H1384   1.082       .  S
C1385      C1390   1.380       .  A
C1385      C1386   1.406       .  A
C1385      O1391   1.320       .  A
C1386      C1387   1.404       .  A
C1386      H1397   1.081       .  S
C1387      C1396   1.364       .  A
C1387      C1388   1.379       .  A
C1388      C1389   1.409       .  A
C1388      O1394   1.324       .  A
C1389      C1390   1.408       .  A
C1389      H1398   1.082       .  S
C1390      C1393   1.368       .  A
O1391      C1392   1.332       .  A
C1392      C1393   1.394       .  A
C1393      H1399   1.082       .  S
O1394      C1395   1.334       .  A
C1395      C1396   1.393       .  A
C1396      H1400   1.082   1_554  S
C1401      C1406   1.380       .  A
C1401      C1402   1.405       .  A
C1401      O1407   1.321       .  A
C1402      C1403   1.404       .  A
C1402      H1413   1.083       .  S
C1403      C1412   1.363       .  A
C1403      C1404   1.381       .  A
C1404      C1405   1.404       .  A
C1404      O1410   1.320       .  A
C1405      C1406   1.404       .  A
C1405      H1414   1.083       .  S
C1406      C1409   1.363       .  A
O1407      C1408   1.332       .  A
C1408      C1409   1.391       .  A
C1409      H1415   1.082       .  S
O1410      C1411   1.331       .  A
C1411      C1412   1.392       .  A
C1412      H1416   1.082       .  S
C1417      C1422   1.380       .  A
C1417      C1418   1.404       .  A
C1417      O1423   1.318       .  A
C1418      C1419   1.403       .  A
C1418      H1429   1.083       .  S
C1419      C1428   1.363       .  A
C1419      C1420   1.380       .  A
C1420      C1421   1.407       .  A
C1420      O1426   1.321       .  A
C1421      C1422   1.406       .  A
C1421      H1430   1.082       .  S
C1422      C1425   1.367       .  A
O1423      C1424   1.331       .  A
C1424      C1425   1.393       .  A
C1425      H1431   1.082       .  S
O1426      C1427   1.332       .  A
C1427      C1428   1.392       .  A
C1428      H1432   1.083       .  S
C1433      C1438   1.381       .  A
C1433      C1434   1.400       .  A
C1433      O1439   1.314       .  A
C1434      C1435   1.398       .  A
C1434      H1445   1.082       .  S
C1435      C1444   1.358       .  A
C1435      C1436   1.380       .  A
C1436      C1437   1.407       .  A
C1436      O1442   1.320       .  A
C1437      C1438   1.405       .  A
C1437      H1446   1.082       .  S
C1438      C1441   1.366       .  A
O1439      C1440   1.328       .  A
C1440      C1441   1.391       .  A
C1441      H1447   1.080       .  S
O1442      C1443   1.333       .  A
C1443      C1444   1.389       .  A
C1444      H1448   1.082       .  S
C1449      C1454   1.380       .  A
C1449      C1450   1.404       .  A
C1449      O1455   1.317       .  A
C1450      C1451   1.402       .  A
C1450      H1461   1.081       .  S
C1451      C1460   1.362       .  A
C1451      C1452   1.379       .  A
C1452      C1453   1.404       .  A
C1452      O1458   1.317       .  A
C1453      C1454   1.402       .  A
C1453      H1462   1.081       .  S
C1454      C1457   1.363       .  A
O1455      C1456   1.331       .  A
C1456      C1457   1.391       .  A
C1457      H1463   1.081       .  S
O1458      C1459   1.330       .  A
C1459      C1460   1.391       .  A
C1460      H1464   1.081       .  S
C1465      C1470   1.381       .  A
C1465      C1466   1.400       .  A
C1465      O1471   1.315       .  A
C1466      C1467   1.399       .  A
C1466      H1477   1.083       .  S
C1467      C1476   1.358       .  A
C1467      C1468   1.380       .  A
C1468      C1469   1.403       .  A
C1468      O1474   1.317       .  A
C1469      C1470   1.402       .  A
C1469      H1478   1.083       .  S
C1470      C1473   1.363       .  A
O1471      C1472   1.329       .  A
C1472      C1473   1.391       .  A
C1473      H1479   1.083       .  S
O1474      C1475   1.330       .  A
C1475      C1476   1.389       .  A
C1476      H1480   1.083   1_554  S
C1481      C1486   1.380       .  A
C1481      C1482   1.408       .  A
C1481      O1487   1.322       .  A
C1482      C1483   1.407       .  A
C1482      H1493   1.083       .  S
C1483      C1492   1.367       .  A
C1483      C1484   1.380       .  A
C1484      C1485   1.405       .  A
C1484      O1490   1.320       .  A
C1485      C1486   1.404       .  A
C1485      H1494   1.083       .  S
C1486      C1489   1.364       .  A
O1487      C1488   1.333       .  A
C1488      C1489   1.390       .  A
C1489      H1495   1.083       .  S
O1490      C1491   1.332       .  A
C1491      C1492   1.394       .  A
C1492      H1496   1.083       .  S
C1497      C1502   1.381       .  A
C1497      C1498   1.397       .  A
C1497      O1503   1.316       .  A
C1498      C1499   1.397       .  A
C1498      H1509   1.093       .  S
C1499      C1508   1.355       .  A
C1499      C1500   1.380       .  A
C1500      C1501   1.405       .  A
C1500      O1506   1.322       .  A
C1501      C1502   1.406       .  A
C1501      H1510   1.087       .  S
C1502      C1505   1.365       .  A
O1503      C1504   1.329       .  A
C1504      C1505   1.392       .  A
C1505      H1511   1.083       .  S
O1506      C1507   1.332       .  A
C1507      C1508   1.390       .  A
C1508      H1512   1.077       .  S
C1513      C1518   1.381       .  A
C1513      C1514   1.398       .  A
C1513      O1519   1.316       .  A
C1514      C1515   1.397       .  A
C1514      H1525   1.081       .  S
C1515      C1524   1.356       .  A
C1515      C1516   1.379       .  A
C1516      C1517   1.410       .  A
C1516      O1522   1.325       .  A
C1517      C1518   1.410       .  A
C1517      H1526   1.083       .  S
C1518      C1521   1.369       .  A
O1519      C1520   1.328       .  A
C1520      C1521   1.395       .  A
C1521      H1527   1.082       .  S
O1522      C1523   1.335       .  A
C1523      C1524   1.390       .  A
C1524      H1528   1.083       .  S
C1529      C1534   1.381       .  A
C1529      C1530   1.404       .  A
C1529      O1535   1.319       .  A
C1530      C1531   1.402       .  A
C1530      H1541   1.082       .  S
C1531      C1540   1.363       .  A
C1531      C1532   1.382       .  A
C1532      C1533   1.404       .  A
C1532      O1538   1.319       .  A
C1533      C1534   1.403       .  A
C1533      H1542   1.082       .  S
C1534      C1537   1.363       .  A
O1535      C1536   1.330       .  A
C1536      C1537   1.391       .  A
C1537      H1543   1.083       .  S
O1538      C1539   1.330       .  A
C1539      C1540   1.389       .  A
C1540      H1544   1.082       .  S
C1545      C1550   1.380       .  A
C1545      C1546   1.403       .  A
C1545      O1551   1.316       .  A
C1546      C1547   1.401       .  A
C1546      H1557   1.083       .  S
C1547      C1556   1.362       .  A
C1547      C1548   1.380       .  A
C1548      C1549   1.405       .  A
C1548      O1554   1.319       .  A
C1549      C1550   1.404       .  A
C1549      H1558   1.083       .  S
C1550      C1553   1.366       .  A
O1551      C1552   1.330       .  A
C1552      C1553   1.392       .  A
C1553      H1559   1.083       .  S
O1554      C1555   1.331       .  A
C1555      C1556   1.390       .  A
C1556      H1560   1.083       .  S
C1561      C1566   1.380       .  A
C1561      C1562   1.400       .  A
C1561      O1567   1.316       .  A
C1562      C1563   1.399       .  A
C1562      H1573   1.082       .  S
C1563      C1572   1.356       .  A
C1563      C1564   1.380       .  A
C1564      C1565   1.408       .  A
C1564      O1570   1.323       .  A
C1565      C1566   1.407       .  A
C1565      H1574   1.082       .  S
C1566      C1569   1.367       .  A
O1567      C1568   1.329       .  A
C1568      C1569   1.394       .  A
C1569      H1575   1.082       .  S
O1570      C1571   1.332       .  A
C1571      C1572   1.389       .  A
C1572      H1576   1.081       .  S
C1577      C1582   1.382       .  A
C1577      C1578   1.403       .  A
C1577      O1583   1.319       .  A
C1578      C1579   1.403       .  A
C1578      H1589   1.082       .  S
C1579      C1588   1.360       .  A
C1579      C1580   1.380       .  A
C1580      C1581   1.405       .  A
C1580      O1586   1.321       .  A
C1581      C1582   1.404       .  A
C1581      H1590   1.082       .  S
C1582      C1585   1.363       .  A
O1583      C1584   1.328       .  A
C1584      C1585   1.389       .  A
C1585      H1591   1.082       .  S
O1586      C1587   1.331       .  A
C1587      C1588   1.392       .  A
C1588      H1592   1.082       .  S
C1593      C1598   1.380       .  A
C1593      C1594   1.408       .  A
C1593      O1599   1.320       .  A
C1594      C1595   1.406       .  A
C1594      H1605   1.083       .  S
C1595      C1604   1.368       .  A
C1595      C1596   1.380       .  A
C1596      C1597   1.401       .  A
C1596      O1602   1.315       .  A
C1597      C1598   1.399       .  A
C1597      H1606   1.083       .  S
C1598      C1601   1.360       .  A
O1599      C1600   1.332       .  A
C1600      C1601   1.387       .  A
C1601      H1607   1.083       .  S
O1602      C1603   1.329       .  A
C1603      C1604   1.394       .  A
C1604      H1608   1.083       .  S
C1609      C1614   1.380       .  A
C1609      C1610   1.406       .  A
C1609      O1615   1.320       .  A
C1610      C1611   1.405       .  A
C1610      H1621   1.083       .  S
C1611      C1620   1.365       .  A
C1611      C1612   1.380       .  A
C1612      C1613   1.403       .  A
C1612      O1618   1.319       .  A
C1613      C1614   1.403       .  A
C1613      H1622   1.083       .  S
C1614      C1617   1.362       .  A
O1615      C1616   1.332       .  A
C1616      C1617   1.390       .  A
C1617      H1623   1.083       .  S
O1618      C1619   1.331       .  A
C1619      C1620   1.392       .  A
C1620      H1624   1.083       .  S
C1625      C1630   1.380       .  A
C1625      C1626   1.403       .  A
C1625      O1631   1.318       .  A
C1626      C1627   1.402       .  A
C1626      H1637   1.083       .  S
C1627      C1636   1.362       .  A
C1627      C1628   1.380       .  A
C1628      C1629   1.405       .  A
C1628      O1634   1.320       .  A
C1629      C1630   1.404       .  A
C1629      H1638   1.083       .  S
C1630      C1633   1.364       .  A
O1631      C1632   1.330       .  A
C1632      C1633   1.391       .  A
C1633      H1639   1.083       .  S
O1634      C1635   1.331       .  A
C1635      C1636   1.390       .  A
C1636      H1640   1.083       .  S
C1641      C1646   1.381       .  A
C1641      C1642   1.404       .  A
C1641      O1647   1.316       .  A
C1642      C1643   1.402       .  A
C1642      H1653   1.083       .  S
C1643      C1652   1.363       .  A
C1643      C1644   1.380       .  A
C1644      C1645   1.406       .  A
C1644      O1650   1.320       .  A
C1645      C1646   1.404       .  A
C1645      H1654   1.082       .  S
C1646      C1649   1.367       .  A
O1647      C1648   1.330       .  A
C1648      C1649   1.390       .  A
C1649      H1655   1.081       .  S
O1650      C1651   1.332       .  A
C1651      C1652   1.392       .  A
C1652      H1656   1.082       .  S
C1657      C1662   1.380       .  A
C1657      C1658   1.402       .  A
C1657      O1663   1.319       .  A
C1658      C1659   1.403       .  A
C1658      H1669   1.082       .  S
C1659      C1668   1.359       .  A
C1659      C1660   1.380       .  A
C1660      C1661   1.403       .  A
C1660      O1666   1.320       .  A
C1661      C1662   1.403       .  A
C1661      H1670   1.082       .  S
C1662      C1665   1.359       .  A
O1663      C1664   1.329       .  A
C1664      C1665   1.393       .  A
C1665      H1671   1.082       .  S
O1666      C1667   1.331       .  A
C1667      C1668   1.391       .  A
C1668      H1672   1.082       .  S
C1673      C1678   1.380       .  A
C1673      C1674   1.404       .  A
C1673      O1679   1.319       .  A
C1674      C1675   1.403       .  A
C1674      H1685   1.083       .  S
C1675      C1684   1.361       .  A
C1675      C1676   1.380       .  A
C1676      C1677   1.408       .  A
C1676      O1682   1.324       .  A
C1677      C1678   1.408       .  A
C1677      H1686   1.083       .  S
C1678      C1681   1.369       .  A
O1679      C1680   1.332       .  A
C1680      C1681   1.394       .  A
C1681      H1687   1.083       .  S
O1682      C1683   1.333       .  A
C1683      C1684   1.391       .  A
C1684      H1688   1.082       .  S
C1689      C1694   1.381       .  A
C1689      C1690   1.401   1_455  A
C1689      O1695   1.316   1_455  A
C1690      C1691   1.400   1_655  A
C1690      H1701   1.082       .  S
C1691      C1700   1.358       .  A
C1691      C1692   1.381       .  A
C1692      C1693   1.403       .  A
C1692      O1698   1.319       .  A
C1693      C1694   1.403       .  A
C1693      H1702   1.083       .  S
C1694      C1697   1.362       .  A
O1695      C1696   1.329   1_655  A
C1696      C1697   1.390       .  A
C1697      H1703   1.083       .  S
O1698      C1699   1.329       .  A
C1699      C1700   1.389       .  A
C1700      H1704   1.081   1_455  S
C1705      C1710   1.379       .  A
C1705      C1706   1.408       .  A
C1705      O1711   1.322       .  A
C1706      C1707   1.407       .  A
C1706      H1717   1.083       .  S
C1707      C1716   1.368       .  A
C1707      C1708   1.380       .  A
C1708      C1709   1.405       .  A
C1708      O1714   1.320       .  A
C1709      C1710   1.404       .  A
C1709      H1718   1.083       .  S
C1710      C1713   1.364       .  A
O1711      C1712   1.333       .  A
C1712      C1713   1.391       .  A
C1713      H1719   1.083       .  S
O1714      C1715   1.332       .  A
C1715      C1716   1.394       .  A
C1716      H1720   1.083       .  S
C1721      C1726   1.381       .  A
C1721      C1722   1.405       .  A
C1721      O1727   1.323       .  A
C1722      C1723   1.406       .  A
C1722      H1733   1.083       .  S
C1723      C1732   1.361       .  A
C1723      C1724   1.379       .  A
C1724      C1725   1.405       .  A
C1724      O1730   1.323       .  A
C1725      C1726   1.406       .  A
C1725      H1734   1.084       .  S
C1726      C1729   1.362       .  A
O1727      C1728   1.332       .  A
C1728      C1729   1.393       .  A
C1729      H1735   1.083       .  S
O1730      C1731   1.332       .  A
C1731      C1732   1.395       .  A
C1732      H1736   1.083       .  S
C1737      C1742   1.380       .  A
C1737      C1738   1.409       .  A
C1737      O1743   1.325       .  A
C1738      C1739   1.408       .  A
C1738      H1749   1.082       .  S
C1739      C1748   1.368       .  A
C1739      C1740   1.380       .  A
C1740      C1741   1.406   1_455  A
C1740      O1746   1.322   1_455  A
C1741      C1742   1.406   1_655  A
C1741      H1750   1.082       .  S
C1742      C1745   1.364       .  A
O1743      C1744   1.334       .  A
C1744      C1745   1.392       .  A
C1745      H1751   1.082   1_455  S
O1746      C1747   1.333   1_655  A
C1747      C1748   1.394       .  A
C1748      H1752   1.083       .  S
C1753      C1758   1.381       .  A
C1753      C1754   1.404       .  A
C1753      O1759   1.322       .  A
C1754      C1755   1.404       .  A
C1754      H1765   1.083       .  S
C1755      C1764   1.361       .  A
C1755      C1756   1.382       .  A
C1756      C1757   1.401       .  A
C1756      O1762   1.319       .  A
C1757      C1758   1.402       .  A
C1757      H1766   1.083       .  S
C1758      C1761   1.357       .  A
O1759      C1760   1.331       .  A
C1760      C1761   1.391       .  A
C1761      H1767   1.083       .  S
O1762      C1763   1.329       .  A
C1763      C1764   1.390       .  A
C1764      H1768   1.083       .  S
C1769      C1774   1.380       .  A
C1769      C1770   1.406       .  A
C1769      O1775   1.321       .  A
C1770      C1771   1.405       .  A
C1770      H1781   1.081       .  S
C1771      C1780   1.366       .  A
C1771      C1772   1.382       .  A
C1772      C1773   1.400       .  A
C1772      O1778   1.315       .  A
C1773      C1774   1.399       .  A
C1773      H1782   1.082       .  S
C1774      C1777   1.357       .  A
O1775      C1776   1.332       .  A
C1776      C1777   1.391       .  A
C1777      H1783   1.082       .  S
O1778      C1779   1.327       .  A
C1779      C1780   1.389       .  A
C1780      H1784   1.081       .  S
C1785      C1790   1.380       .  A
C1785      C1786   1.403       .  A
C1785      O1791   1.318       .  A
C1786      C1787   1.403       .  A
C1786      H1797   1.082       .  S
C1787      C1796   1.361       .  A
C1787      C1788   1.380       .  A
C1788      C1789   1.407       .  A
C1788      O1794   1.323       .  A
C1789      C1790   1.407       .  A
C1789      H1798   1.083       .  S
C1790      C1793   1.366       .  A
O1791      C1792   1.331       .  A
C1792      C1793   1.393       .  A
C1793      H1799   1.081       .  S
O1794      C1795   1.333       .  A
C1795      C1796   1.391       .  A
C1796      H1800   1.082       .  S
C1801      C1806   1.380       .  A
C1801      C1802   1.405       .  A
C1801      O1807   1.321       .  A
C1802      C1803   1.404       .  A
C1802      H1813   1.082       .  S
C1803      C1812   1.364       .  A
C1803      C1804   1.382       .  A
C1804      C1805   1.401       .  A
C1804      O1810   1.317       .  A
C1805      C1806   1.401       .  A
C1805      H1814   1.082       .  S
C1806      C1809   1.359       .  A
O1807      C1808   1.332       .  A
C1808      C1809   1.390       .  A
C1809      H1815   1.082       .  S
O1810      C1811   1.328       .  A
C1811      C1812   1.390       .  A
C1812      H1816   1.082       .  S
C1817      C1822   1.382       .  A
C1817      C1818   1.405       .  A
C1817      O1823   1.318       .  A
C1818      C1819   1.403       .  A
C1818      H1829   1.083       .  S
C1819      C1828   1.366       .  A
C1819      C1820   1.381       .  A
C1820      C1821   1.401       .  A
C1820      O1826   1.314       .  A
C1821      C1822   1.399       .  A
C1821      H1830   1.083       .  S
C1822      C1825   1.361       .  A
O1823      C1824   1.330       .  A
C1824      C1825   1.386       .  A
C1825      H1831   1.082       .  S
O1826      C1827   1.329       .  A
C1827      C1828   1.392       .  A
C1828      H1832   1.083       .  S
C1833      C1838   1.381       .  A
C1833      C1834   1.404       .  A
C1833      O1839   1.320       .  A
C1834      C1835   1.404       .  A
C1834      H1845   1.083       .  S
C1835      C1844   1.362       .  A
C1835      C1836   1.381       .  A
C1836      C1837   1.404       .  A
C1836      O1842   1.321       .  A
C1837      C1838   1.404       .  A
C1837      H1846   1.083       .  S
C1838      C1841   1.362       .  A
O1839      C1840   1.330       .  A
C1840      C1841   1.390       .  A
C1841      H1847   1.083       .  S
O1842      C1843   1.331       .  A
C1843      C1844   1.392       .  A
C1844      H1848   1.083       .  S
C1849      C1854   1.381       .  A
C1849      C1850   1.403       .  A
C1849      O1855   1.321       .  A
C1850      C1851   1.403       .  A
C1850      H1861   1.083       .  S
C1851      C1860   1.359       .  A
C1851      C1852   1.380       .  A
C1852      C1853   1.406       .  A
C1852      O1858   1.323       .  A
C1853      C1854   1.407       .  A
C1853      H1862   1.083       .  S
C1854      C1857   1.364       .  A
O1855      C1856   1.331       .  A
C1856      C1857   1.393       .  A
C1857      H1863   1.083       .  S
O1858      C1859   1.333       .  A
C1859      C1860   1.392       .  A
C1860      H1864   1.082       .  S
C1865      C1870   1.380       .  A
C1865      C1866   1.405       .  A
C1865      O1871   1.318       .  A
C1866      C1867   1.403       .  A
C1866      H1877   1.082       .  S
C1867      C1876   1.364       .  A
C1867      C1868   1.378       .  A
C1868      C1869   1.405       .  A
C1868      O1874   1.318       .  A
C1869      C1870   1.404       .  A
C1869      H1878   1.082       .  S
C1870      C1873   1.365       .  A
O1871      C1872   1.331       .  A
C1872      C1873   1.392       .  A
C1873      H1879   1.082       .  S
O1874      C1875   1.333       .  A
C1875      C1876   1.395       .  A
C1876      H1880   1.080       .  S
C1881      C1886   1.380       .  A
C1881      C1882   1.402       .  A
C1881      O1887   1.318       .  A
C1882      C1883   1.401       .  A
C1882      H1893   1.083       .  S
C1883      C1892   1.360       .  A
C1883      C1884   1.381       .  A
C1884      C1885   1.405       .  A
C1884      O1890   1.321       .  A
C1885      C1886   1.405       .  A
C1885      H1894   1.083       .  S
C1886      C1889   1.364       .  A
O1887      C1888   1.330       .  A
C1888      C1889   1.393       .  A
C1889      H1895   1.082       .  S
O1890      C1891   1.330       .  A
C1891      C1892   1.389       .  A
C1892      H1896   1.082       .  S
