geometry optimzed in LAMMPS
_audit_creation_date              2020-11-30 
_audit_creation_method            'lammps2cif' 
_symmetry_space_group_name_H-M    'P1' 
_symmetry_Int_Tables_number       1 
_symmetry_cell_setting            triclinic 
loop_ 
_symmetry_equiv_pos_as_xyz 
  x,y,z 
_cell_length_a                    21.83520523 
_cell_length_b                    28.93413548031949 
_cell_length_c                    38.50879983267705 
_cell_angle_alpha                 90.00298571734515 
_cell_angle_beta                  89.99607000597503 
_cell_angle_gamma                 90.08174805285603 
loop_ 
_atom_site_label 
_atom_site_type_symbol 
_atom_site_fract_x 
_atom_site_fract_y 
_atom_site_fract_z 
_atom_site_charge 
O1          O  0.87891461  0.92558298  0.06657573    -0.73900
O2          O  0.93493925  0.87175265  0.03696513    -0.52800
C3          C  0.89308380  0.88377934  0.05861377     0.79800
O4          O  0.88068476  0.08166548  0.43140963    -0.58500
O5          O  0.93462544  0.13581760  0.46201019    -0.51600
C6          C  0.89439210  0.12356268  0.43945266     0.71800
O7          O  0.87805226  0.92603830  0.43322979    -0.73100
O8          O  0.93445043  0.87194938  0.46232946    -0.53700
C9          C  0.89234425  0.88416965  0.44091702     0.77800
O10         O  0.88155391  0.08100778  0.06907539    -0.58200
O11         O  0.93486403  0.13539103  0.03832982    -0.51400
C12         C  0.89485840  0.12296194  0.06096933     0.74400
Zr13       Zr  0.91295444  0.00345711  0.05178229     2.54700
O14         O  0.80149839  0.00447177  0.05212761    -0.78800
O15         O  0.91993563  0.00254291  0.11489638    -0.92200
Zr16       Zr  0.91139412  0.00387312  0.44858248     2.64700
O17         O  0.79987968  0.00341044  0.45013568    -0.97200
O18         O  0.91412794  0.00361090  0.38537182    -0.79200
O19         O  0.91137082  0.95899824  0.00007875    -0.82600
O20         O  0.91044248  0.04831837  0.00028661    -2.17300
O21         O  0.12440693  0.08201744  0.06822718    -0.66000
O22         O  0.07006776  0.13605722  0.03784676    -0.50600
C23         C  0.11055263  0.12388572  0.06025350     0.72800
O24         O  0.12774700  0.92720305  0.43239952    -0.58900
O25         O  0.07230352  0.87270777  0.46178334    -0.50900
C26         C  0.11397732  0.88521725  0.44015126     0.74600
O27         O  0.12336369  0.08258987  0.43093031    -0.70300
O28         O  0.06945596  0.13632189  0.46187129    -0.49000
C29         C  0.10961046  0.12437757  0.43920039     0.76000
O30         O  0.12846487  0.92628600  0.06606052    -0.65600
O31         O  0.07284101  0.87209999  0.03646598    -0.52800
C32         C  0.11462111  0.88436987  0.05809482     0.74300
Zr33       Zr  0.09421145  0.00403464  0.05099549     2.77500
O34         O  0.20574360  0.00473242  0.05041858    -0.96400
O35         O  0.08915575  0.00243797  0.11412920    -0.77200
Zr36       Zr  0.09263661  0.00457798  0.44768050     2.70100
O37         O  0.20401886  0.00657822  0.44599403    -0.78400
O38         O  0.08334598  0.00277681  0.38470513    -0.97500
Zr39       Zr  0.00342856  0.91511179  0.49952326     2.21500
Zr40       Zr  0.00237883  0.09281480  0.99995895     2.11100
O41         O  0.09464643  0.04886361  0.49946113    -2.46200
O42         O  0.09503060  0.95972295  0.49920576    -0.78200
O43         O  0.00338896  0.04892524  0.05227694    -0.70400
O44         O  0.00229392  0.95905631  0.44714475    -2.31400
O45         O  0.00380695  0.95856893  0.05214675    -2.27600
O46         O  0.00180805  0.04940997  0.44740664    -0.72200
H47         H  0.87477578  0.06801443  0.50049008     0.79800
H48         H  0.00224275  0.93904832  0.42706520     0.80900
H49         H  0.13015842  0.06879530  0.99934378     0.83100
H50         H  0.00421248  0.93838553  0.07212332     0.80700
H51         H  0.94651760  0.98113329  0.37926007     0.43800
H52         H  0.05725234  0.02968498  0.37899206     0.42700
H53         H  0.21673953  0.99548723  0.46921982     0.42400
H54         H  0.21698052  0.03148445  0.03569618     0.40300
H55         H  0.05577295  0.02418152  0.12005010     0.43500
H56         H  0.94217693  0.97371297  0.12053706     0.38300
H57         H  0.78970767  0.99037107  0.02966893     0.44400
H58         H  0.78864309  0.03006951  0.46492815     0.40800
H59         H  0.21752452  0.01409394  0.07423415     0.45700
H60         H  0.87746420  0.99677990  0.12281399     0.44400
H61         H  0.78733624  0.01261506  0.42641782     0.44600
H62         H  0.12455857  0.01140274  0.37613509     0.44900
O63         O  0.62566775  0.58265291  0.31694186    -0.73900
O64         O  0.56979197  0.63620227  0.28697490    -0.52800
C65         C  0.61129594  0.62438911  0.30889565     0.79800
O66         O  0.62604691  0.42617281  0.18174072    -0.58500
O67         O  0.57225081  0.37191175  0.21232346    -0.51600
C68         C  0.61267336  0.38424688  0.18990432     0.71800
O69         O  0.62645442  0.58193894  0.18259850    -0.73100
O70         O  0.57039124  0.63582472  0.21213237    -0.53700
C71         C  0.61206231  0.62375999  0.19039550     0.77800
O72         O  0.62563157  0.42717410  0.31869546    -0.58200
O73         O  0.57218455  0.37254823  0.28827007    -0.51400
C74         C  0.61251101  0.38515676  0.31066942     0.74400
Zr75       Zr  0.59301426  0.50456677  0.30170754     2.54700
O76         O  0.70447483  0.50496335  0.30199604    -0.78800
O77         O  0.58674856  0.50473505  0.36484110    -0.92200
Zr78       Zr  0.59439824  0.50396167  0.19848673     2.64700
O79         O  0.70588292  0.50539216  0.20016070    -0.97200
O80         O  0.59210198  0.50359575  0.13526854    -0.79200
O81         O  0.59429726  0.54895795  0.24995398    -0.82600
O82         O  0.59565518  0.45966143  0.25024369    -2.17300
O83         O  0.38161432  0.42524275  0.31820628    -0.66000
O84         O  0.43650800  0.37137962  0.28796234    -0.50600
C85         C  0.39576713  0.38341994  0.31026643     0.72800
O86         O  0.37784346  0.57984885  0.18219775    -0.58900
O87         O  0.43272468  0.63455716  0.21170570    -0.50900
C88         C  0.39130798  0.62189096  0.18996601     0.74600
O89         O  0.38310947  0.42445415  0.18089481    -0.70300
O90         O  0.43717764  0.37096137  0.21197522    -0.49000
C91         C  0.39703065  0.38272769  0.18924184     0.76000
O92         O  0.37731650  0.58081770  0.31639789    -0.65800
O93         O  0.43243718  0.63515296  0.28665461    -0.52800
C94         C  0.39093549  0.62276604  0.30842772     0.74300
Zr95       Zr  0.41169734  0.50324903  0.30101148     2.77500
O96         O  0.30017017  0.50264264  0.30015648    -0.96400
O97         O  0.41658258  0.50457462  0.36415174    -0.77200
Zr98       Zr  0.41317894  0.50259131  0.19769152     2.70100
O99         O  0.30179291  0.50018574  0.19652621    -0.78400
O100        O  0.42205311  0.50424525  0.13468487    -0.97500
Zr101      Zr  0.50188131  0.59245640  0.24946988     2.21500
Zr102      Zr  0.50402332  0.41477653  0.25004426     2.11100
O103        O  0.41149368  0.45837341  0.24950357    -2.46200
O104        O  0.41058700  0.54751253  0.24919321    -0.78200
O105        O  0.50285286  0.45872728  0.30234733    -0.70400
O106        O  0.50321066  0.54842877  0.19711343    -2.31400
O107        O  0.50182375  0.54902433  0.30209974    -2.27600
O108        O  0.50428084  0.45806623  0.19742456    -0.72200
H109        H  0.63147798  0.44012987  0.25043918     0.79800
H110        H  0.50308985  0.56838576  0.17700654     0.80900
H111        H  0.37610755  0.43831457  0.24939561     0.83100
H112        H  0.50130835  0.56918079  0.32209242     0.80700
H113        H  0.55743008  0.52396929  0.12902172     0.43800
H114        H  0.44561777  0.47610028  0.12879308     0.42700
H115        H  0.28932525  0.51168812  0.21968492     0.42400
H116        H  0.28901845  0.47585113  0.28545325     0.40300
H117        H  0.45192228  0.48461975  0.36997128     0.43500
H118        H  0.56438040  0.53342042  0.37073483     0.38300
H119        H  0.71592496  0.52069277  0.28009829     0.44400
H120        H  0.71741831  0.47927362  0.21541295     0.40800
H121        H  0.28818880  0.49336405  0.32395781     0.45700
H122        H  0.62927466  0.51057697  0.37263138     0.44400
H123        H  0.71866166  0.49558053  0.17661978     0.44600
H124        H  0.38008457  0.49780636  0.12621922     0.44900
C125        C  0.21496510  0.22143020  0.10845402     0.18400
C126        C  0.22312929  0.21989804  0.14452389    -0.10700
C127        C  0.26245798  0.25136896  0.16077593    -0.11600
C128        C  0.29387154  0.28443632  0.14101400     0.19900
C129        C  0.28576973  0.28592809  0.10493657    -0.13600
C130        C  0.24644113  0.25445523  0.08868395    -0.11900
C131        C  0.33310900  0.31756070  0.15784098     0.00900
C132        C  0.36387542  0.34650981  0.17209942    -0.31900
C133        C  0.17539193  0.18850904  0.09166293     0.02300
C134        C  0.14421583  0.15979087  0.07743379    -0.33600
H135        H  0.19918066  0.19439324  0.16003882     0.13300
H136        H  0.26822570  0.25001953  0.18870252     0.13200
H137        H  0.30967205  0.31146130  0.08942520     0.13000
H138        H  0.24062693  0.25583032  0.06076091     0.12000
C139        C  0.21270033  0.22263372  0.39091727     0.18400
C140        C  0.21616540  0.22407700  0.35460190    -0.10700
C141        C  0.25542991  0.25553764  0.33828425    -0.11600
C142        C  0.29144914  0.28561283  0.35822643     0.19900
C143        C  0.28789943  0.28421368  0.39453587    -0.13600
C144        C  0.24863914  0.25276204  0.41085017    -0.11900
C145        C  0.33096360  0.31858536  0.34145267     0.00900
C146        C  0.36212751  0.34740353  0.32733048    -0.31900
C147        C  0.17358390  0.18944659  0.40774447     0.02300
C148        C  0.14289338  0.16047707  0.42201907    -0.33600
H149        H  0.18872126  0.20082429  0.33894968     0.13300
H150        H  0.25766093  0.25645098  0.31018460     0.13200
H151        H  0.31538537  0.30743090  0.41019354     0.13000
H152        H  0.24645513  0.25182372  0.43895050     0.12000
C153        C  0.21626652  0.78544854  0.10664288     0.18400
C154        C  0.22391338  0.78771675  0.14273299    -0.10700
C155        C  0.26046287  0.75516261  0.15976298    -0.11600
C156        C  0.28958316  0.72022095  0.14077151     0.19900
C157        C  0.28193964  0.71794530  0.10467686    -0.13600
C158        C  0.24538361  0.75050639  0.08764348    -0.11900
C159        C  0.32670787  0.68643967  0.15833148     0.00900
C160        C  0.35690488  0.65747956  0.17291281    -0.31900
C161        C  0.17917228  0.81929120  0.08913297     0.02300
C162        C  0.14898943  0.84845831  0.07477987    -0.33600
H163        H  0.20170193  0.81464057  0.15766923     0.13300
H164        H  0.26596919  0.75720414  0.18768299     0.13200
H165        H  0.30416407  0.69102506  0.08974367     0.13000
H166        H  0.23988203  0.74847696  0.05972263     0.12000
C167        C  0.79182854  0.22107978  0.10929708     0.18400
C168        C  0.81656906  0.25198149  0.13354789    -0.10700
C169        C  0.77878914  0.28432137  0.14992877    -0.11600
C170        C  0.71612733  0.28586549  0.14213973     0.19900
C171        C  0.69138640  0.25495370  0.11789554    -0.13600
C172        C  0.72916498  0.22261525  0.10151523    -0.11900
C173        C  0.67749951  0.31943925  0.15881908     0.00900
C174        C  0.64666410  0.34843300  0.17289952    -0.31900
C175        C  0.83046893  0.18759160  0.09253538     0.02300
C176        C  0.86119732  0.15869148  0.07827576    -0.33600
H177        H  0.86493849  0.25106086  0.13977806     0.13300
H178        H  0.79839706  0.30811589  0.16860935     0.13200
H179        H  0.64302348  0.25588848  0.11165040     0.13000
H180        H  0.70956223  0.19883719  0.08282068     0.12000
C181        C  0.78842325  0.78655035  0.39240892     0.18400
C182        C  0.81471586  0.75186668  0.37190857    -0.10700
C183        C  0.77732982  0.72000574  0.35466230    -0.11600
C184        C  0.71349889  0.72271438  0.35781853     0.19900
C185        C  0.68718217  0.75740955  0.37831985    -0.13600
C186        C  0.72458387  0.78928530  0.39557136    -0.11900
C187        C  0.67527647  0.68954084  0.34030858     0.00900
C188        C  0.64490399  0.66058025  0.32579191    -0.31900
C189        C  0.82681063  0.81962946  0.40987932     0.02300
C190        C  0.85783890  0.84832190  0.42423087    -0.33600
H191        H  0.86400814  0.74949296  0.36924291     0.13300
H192        H  0.79815059  0.69326516  0.33891616     0.13200
H193        H  0.63788968  0.75977482  0.38098267     0.13000
H194        H  0.70378525  0.81603399  0.41132044     0.12000
C195        C  0.79279277  0.22217409  0.39069299     0.18400
C196        C  0.76426507  0.21150239  0.35908976    -0.10700
C197        C  0.72621826  0.24392711  0.34300016    -0.11600
C198        C  0.71648089  0.28711722  0.35848367     0.19900
C199        C  0.74512215  0.29781746  0.39004181    -0.13600
C200        C  0.78316389  0.26540079  0.40612685    -0.11900
C201        C  0.67776744  0.32066743  0.34184062     0.00900
C202        C  0.64675457  0.34955857  0.32776733    -0.31900
C203        C  0.83088820  0.18845873  0.40760309     0.02300
C204        C  0.86112861  0.15942924  0.42205122    -0.33600
H205        H  0.77128317  0.17812927  0.34697491     0.13300
H206        H  0.70441992  0.23534313  0.31855739     0.13200
H207        H  0.73802285  0.33115778  0.40219157     0.13000
H208        H  0.80487503  0.27396160  0.43059878     0.12000
C209        C  0.21586074  0.78669175  0.39130393     0.18400
C210        C  0.25616392  0.75884996  0.41034681    -0.10700
C211        C  0.29272459  0.72629980  0.39331023    -0.11600
C212        C  0.28920154  0.72149571  0.35715557     0.19900
C213        C  0.24889470  0.74933703  0.33811253    -0.13600
C214        C  0.21233315  0.78188808  0.35514958    -0.11900
C215        C  0.32636987  0.68765770  0.33968638     0.00900
C216        C  0.35659817  0.65857035  0.32526814    -0.31900
C217        C  0.17866286  0.82049827  0.40878194     0.02300
C218        C  0.14837920  0.84951567  0.42323838    -0.33600
H219        H  0.25933814  0.76232867  0.43830358     0.13300
H220        H  0.32364143  0.70488750  0.40829620     0.13200
H221        H  0.24571044  0.74585149  0.31015685     0.13000
H222        H  0.18140565  0.80329446  0.34016576     0.12000
C223        C  0.78992562  0.78573449  0.10723429     0.18400
C224        C  0.78641550  0.78574569  0.14356859    -0.10700
C225        C  0.74877023  0.75387432  0.16063835    -0.11600
C226        C  0.71440145  0.72192580  0.14143166     0.19900
C227        C  0.71789464  0.72191938  0.10510060    -0.13600
C228        C  0.75553887  0.75379074  0.08803081    -0.11900
C229        C  0.67638614  0.68866652  0.15897072     0.00900
C230        C  0.64589825  0.65976271  0.17345529    -0.31900
C231        C  0.82806685  0.81893078  0.08969408     0.02300
C232        C  0.85880219  0.84777030  0.07528890    -0.33600
H233        H  0.81269788  0.81037734  0.15866134     0.13300
H234        H  0.74652782  0.75409196  0.18874542     0.13200
H235        H  0.69162816  0.69727418  0.09001092     0.13000
H236        H  0.75779505  0.75355860  0.05992499     0.12000
O237        O  0.87891458  0.92558303  0.56657573    -0.73900
O238        O  0.93493925  0.87175274  0.53696512    -0.52800
C239        C  0.89308379  0.88377940  0.55861376     0.79800
O240        O  0.88068477  0.08166546  0.93140966    -0.58500
O241        O  0.93462540  0.13581765  0.96201020    -0.51600
C242        C  0.89439207  0.12356270  0.93945267     0.71800
O243        O  0.87805227  0.92603829  0.93322961    -0.73100
O244        O  0.93445030  0.87194942  0.96232944    -0.53700
C245        C  0.89234420  0.88416968  0.94091695     0.77800
O246        O  0.88155388  0.08100783  0.56907539    -0.58200
O247        O  0.93486402  0.13539105  0.53832981    -0.51400
C248        C  0.89485838  0.12296198  0.56096933     0.74400
Zr249      Zr  0.91295443  0.00345713  0.55178230     2.54700
O250        O  0.80149836  0.00447183  0.55212761    -0.78800
O251        O  0.91993539  0.00254296  0.61489642    -0.92200
Zr252      Zr  0.91139408  0.00387304  0.94858249     2.64700
O253        O  0.79987964  0.00341047  0.95013569    -0.97200
O254        O  0.91412791  0.00361094  0.88537182    -0.79200
O255        O  0.91137077  0.95899834  0.50007874    -0.82600
O256        O  0.91044292  0.04831826  0.50028663    -2.17300
O257        O  0.12440692  0.08201749  0.56822718    -0.66000
O258        O  0.07006772  0.13605725  0.53784675    -0.50600
C259        C  0.11055257  0.12388575  0.56025350     0.72800
O260        O  0.12774697  0.92720310  0.93239953    -0.58900
O261        O  0.07230353  0.87270776  0.96178332    -0.50900
C262        C  0.11397731  0.88521729  0.94015126     0.74600
O263        O  0.12336365  0.08258992  0.93093031    -0.70300
O264        O  0.06945592  0.13632194  0.96187130    -0.49000
C265        C  0.10961042  0.12437761  0.93920039     0.76000
O266        O  0.12846489  0.92628602  0.56606054    -0.65600
O267        O  0.07284096  0.87210007  0.53646598    -0.52800
C268        C  0.11462107  0.88436991  0.55809483     0.74300
Zr269      Zr  0.09421162  0.00403465  0.55099550     2.77500
O270        O  0.20574373  0.00473247  0.55041859    -0.96400
O271        O  0.08915574  0.00243802  0.61412920    -0.77200
Zr272      Zr  0.09263657  0.00457802  0.94768052     2.70100
O273        O  0.20401882  0.00657827  0.94599403    -0.78400
O274        O  0.08334593  0.00277652  0.88470518    -0.97500
Zr275      Zr  0.00342856  0.91511166  0.99952326     2.21500
Zr276      Zr  0.00237892  0.09281479  0.49995897     2.11100
O277        O  0.09464656  0.04886373  0.99946114    -2.46200
O278        O  0.09503049  0.95972294  0.99920576    -0.78200
O279        O  0.00338905  0.04892510  0.55227692    -0.70400
O280        O  0.00229393  0.95905627  0.94714478    -2.31400
O281        O  0.00380703  0.95856903  0.55214676    -2.27600
O282        O  0.00180796  0.04940995  0.94740664    -0.72200
H283        H  0.87477515  0.06801451  0.00049006     0.79800
H284        H  0.00224278  0.93904835  0.92706519     0.80900
H285        H  0.13015822  0.06879514  0.49934374     0.83100
H286        H  0.00421246  0.93838559  0.57212331     0.80700
H287        H  0.94651756  0.98113335  0.87926003     0.43800
H288        H  0.05725236  0.02968473  0.87899204     0.42700
H289        H  0.21673950  0.99548728  0.96921982     0.42400
H290        H  0.21698056  0.03148453  0.53569619     0.40300
H291        H  0.05577291  0.02418158  0.62005005     0.43500
H292        H  0.94217685  0.97371312  0.62053706     0.38300
H293        H  0.78970763  0.99037112  0.52966893     0.44400
H294        H  0.78864314  0.03006956  0.96492815     0.40800
H295        H  0.21752456  0.01409401  0.57423416     0.45700
H296        H  0.87746403  0.99677990  0.62281403     0.44400
H297        H  0.78733623  0.01261512  0.92641782     0.44600
H298        H  0.12455859  0.01140237  0.87613513     0.44900
O299        O  0.62566772  0.58265285  0.81694187    -0.73900
O300        O  0.56979198  0.63620225  0.78697492    -0.52800
C301        C  0.61129594  0.62438906  0.80889566     0.79800
O302        O  0.62604690  0.42617284  0.68174071    -0.58500
O303        O  0.57225080  0.37191179  0.71232345    -0.51600
C304        C  0.61267334  0.38424691  0.68990432     0.71800
O305        O  0.62645438  0.58193895  0.68259851    -0.73100
O306        O  0.57039123  0.63582477  0.71213236    -0.53700
C307        C  0.61206230  0.62376000  0.69039549     0.77800
O308        O  0.62563148  0.42717401  0.81869543    -0.58200
O309        O  0.57218450  0.37254808  0.78827007    -0.51400
C310        C  0.61251096  0.38515664  0.81066941     0.74400
Zr311      Zr  0.59301422  0.50456677  0.80170755     2.54700
O312        O  0.70447480  0.50496340  0.80199604    -0.78800
O313        O  0.58674854  0.50473510  0.86484111    -0.92200
Zr314      Zr  0.59439820  0.50396171  0.69848674     2.64700
O315        O  0.70588288  0.50539221  0.70016070    -0.97200
O316        O  0.59210181  0.50359588  0.63526852    -0.79200
O317        O  0.59429722  0.54895799  0.74995399    -0.82600
O318        O  0.59565514  0.45966147  0.75024369    -2.17300
O319        O  0.38161425  0.42524274  0.81820630    -0.66000
O320        O  0.43650796  0.37137966  0.78796235    -0.50600
C321        C  0.39576708  0.38341995  0.81026644     0.72800
O322        O  0.37784372  0.57984889  0.68219771    -0.58900
O323        O  0.43272468  0.63455726  0.71170574    -0.50900
C324        C  0.39130808  0.62189101  0.68996602     0.74600
O325        O  0.38310950  0.42445414  0.68089484    -0.70300
O326        O  0.43717762  0.37096129  0.71197523    -0.49000
C327        C  0.39703064  0.38272766  0.68924185     0.76000
O328        O  0.37731651  0.58081769  0.81639787    -0.65800
O329        O  0.43243715  0.63515301  0.78665462    -0.52800
C330        C  0.39093547  0.62276605  0.80842772     0.74300
Zr331      Zr  0.41169733  0.50324898  0.80101149     2.77500
O332        O  0.30017017  0.50264275  0.80015664    -0.96400
O333        O  0.41658255  0.50457466  0.86415174    -0.77200
Zr334      Zr  0.41317894  0.50259134  0.69769152     2.70100
O335        O  0.30179288  0.50018579  0.69652621    -0.78400
O336        O  0.42205287  0.50424529  0.63468484    -0.97500
Zr337      Zr  0.50188128  0.59245644  0.74946990     2.21500
Zr338      Zr  0.50402332  0.41477653  0.75004426     2.11100
O339        O  0.41149385  0.45837350  0.74950355    -2.46200
O340        O  0.41058697  0.54751253  0.74919324    -0.78200
O341        O  0.50285287  0.45872727  0.80234734    -0.70400
O342        O  0.50321064  0.54842882  0.69711343    -2.31400
O343        O  0.50182367  0.54902442  0.80209986    -2.27600
O344        O  0.50428082  0.45806627  0.69742456    -0.72200
H345        H  0.63147795  0.44012991  0.75043919     0.79800
H346        H  0.50308983  0.56838581  0.67700654     0.80900
H347        H  0.37610776  0.43831472  0.74939557     0.83100
H348        H  0.50130825  0.56918093  0.82209256     0.80700
H349        H  0.55743014  0.52396955  0.62902170     0.43800
H350        H  0.44561770  0.47610043  0.62879309     0.42700
H351        H  0.28932522  0.51168817  0.71968492     0.42400
H352        H  0.28901844  0.47585139  0.78545325     0.40300
H353        H  0.45192225  0.48461980  0.86997133     0.43500
H354        H  0.56438037  0.53342047  0.87073483     0.38300
H355        H  0.71592493  0.52069282  0.78009830     0.44400
H356        H  0.71741828  0.47927367  0.71541295     0.40800
H357        H  0.28818875  0.49336395  0.82395792     0.45700
H358        H  0.62927463  0.51057702  0.87263138     0.44400
H359        H  0.71866163  0.49558058  0.67661978     0.44600
H360        H  0.38008440  0.49780635  0.62621919     0.44900
C361        C  0.21496515  0.22143008  0.60845404     0.18400
C362        C  0.22312930  0.21989802  0.64452390    -0.10700
C363        C  0.26245793  0.25136899  0.66077593    -0.11600
C364        C  0.29387142  0.28443638  0.64101399     0.19900
C365        C  0.28576947  0.28592823  0.60493654    -0.13600
C366        C  0.24644100  0.25445520  0.58868396    -0.11900
C367        C  0.33310892  0.31756074  0.65784096     0.00900
C368        C  0.36387535  0.34650984  0.67209941    -0.31900
C369        C  0.17539200  0.18850890  0.59166297     0.02300
C370        C  0.14421577  0.15979085  0.57743379    -0.33600
H371        H  0.19918069  0.19439319  0.66003886     0.13300
H372        H  0.26822571  0.25001957  0.68870253     0.13200
H373        H  0.30967154  0.31146146  0.58942519     0.13000
H374        H  0.24062674  0.25583024  0.56076093     0.12000
C375        C  0.21270026  0.22263375  0.89091730     0.18400
C376        C  0.21616541  0.22407701  0.85460192    -0.10700
C377        C  0.25542991  0.25553766  0.83828426    -0.11600
C378        C  0.29144905  0.28561291  0.85822647     0.19900
C379        C  0.28789923  0.28421383  0.89453593    -0.13600
C380        C  0.24863900  0.25276211  0.91085021    -0.11900
C381        C  0.33096356  0.31858540  0.84145271     0.00900
C382        C  0.36212747  0.34740355  0.82733049    -0.31900
C383        C  0.17358385  0.18944662  0.90774447     0.02300
C384        C  0.14289334  0.16047710  0.92201908    -0.33600
H385        H  0.18872140  0.20082422  0.83894971     0.13300
H386        H  0.25766104  0.25645091  0.81018467     0.13200
H387        H  0.31538503  0.30743108  0.91019361     0.13000
H388        H  0.24645498  0.25182378  0.93895053     0.12000
C389        C  0.21626658  0.78544860  0.60664288     0.18400
C390        C  0.22391332  0.78771678  0.64273300    -0.10700
C391        C  0.26046283  0.75516262  0.65976299    -0.11600
C392        C  0.28958313  0.72022094  0.64077152     0.19900
C393        C  0.28193971  0.71794534  0.60467687    -0.13600
C394        C  0.24538384  0.75050651  0.58764347    -0.11900
C395        C  0.32670774  0.68643958  0.65833148     0.00900
C396        C  0.35690485  0.65747953  0.67291282    -0.31900
C397        C  0.17917227  0.81929123  0.58913296     0.02300
C398        C  0.14898938  0.84845834  0.57477988    -0.33600
H399        H  0.20170176  0.81464051  0.65766923     0.13300
H400        H  0.26596904  0.75720408  0.68768301     0.13200
H401        H  0.30416409  0.69102506  0.58974371     0.13000
H402        H  0.23988242  0.74847715  0.55972260     0.12000
C403        C  0.79182849  0.22107980  0.60929705     0.18400
C404        C  0.81656836  0.25197951  0.63354951    -0.10700
C405        C  0.77878844  0.28431936  0.64993042    -0.11600
C406        C  0.71612730  0.28586539  0.64213985     0.19900
C407        C  0.69138711  0.25495568  0.61789393    -0.13600
C408        C  0.72916563  0.22261726  0.60151357    -0.11900
C409        C  0.67749948  0.31943908  0.65881928     0.00900
C410        C  0.64666409  0.34843298  0.67289958    -0.31900
C411        C  0.83046886  0.18759163  0.59253536     0.02300
C412        C  0.86119729  0.15869153  0.57827575    -0.33600
H413        H  0.86493719  0.25105729  0.63978097     0.13300
H414        H  0.79839586  0.30811228  0.66861229     0.13200
H415        H  0.64302470  0.25589206  0.61164753     0.13000
H416        H  0.70956341  0.19884078  0.58281773     0.12000
C417        C  0.78842332  0.78655035  0.89240889     0.18400
C418        C  0.81471589  0.75186675  0.87190841    -0.10700
C419        C  0.77732976  0.72000577  0.85466222    -0.11600
C420        C  0.71349885  0.72271438  0.85781854     0.19900
C421        C  0.68718218  0.75740947  0.87832000    -0.13600
C422        C  0.72458395  0.78928525  0.89557150    -0.11900
C423        C  0.67527639  0.68954083  0.84030859     0.00900
C424        C  0.64490402  0.66058015  0.82579194    -0.31900
C425        C  0.82681068  0.81962946  0.90987930     0.02300
C426        C  0.85783886  0.84832191  0.92423086    -0.33600
H427        H  0.86400817  0.74949307  0.86924264     0.13300
H428        H  0.79815044  0.69326521  0.83891605     0.13200
H429        H  0.63788971  0.75977468  0.88098291     0.13000
H430        H  0.70378546  0.81603382  0.91132063     0.12000
C431        C  0.79279283  0.22217410  0.89069294     0.18400
C432        C  0.76426506  0.21150239  0.85908975    -0.10700
C433        C  0.72621824  0.24392710  0.84300015    -0.11600
C434        C  0.71648085  0.28711718  0.85848368     0.19900
C435        C  0.74512204  0.29781744  0.89004184    -0.13600
C436        C  0.78316387  0.26540077  0.90612682    -0.11900
C437        C  0.67776737  0.32066733  0.84184063     0.00900
C438        C  0.64675454  0.34955848  0.82776734    -0.31900
C439        C  0.83088846  0.18845879  0.90760294     0.02300
C440        C  0.86112870  0.15942927  0.92205116    -0.33600
H441        H  0.77128317  0.17812930  0.84697487     0.13300
H442        H  0.70441990  0.23534313  0.81855737     0.13200
H443        H  0.73802274  0.33115769  0.90219159     0.13000
H444        H  0.80487517  0.27396159  0.93059875     0.12000
C445        C  0.21586065  0.78669174  0.89130393     0.18400
C446        C  0.25616382  0.75884991  0.91034681    -0.10700
C447        C  0.29272455  0.72629980  0.89331018    -0.11600
C448        C  0.28920150  0.72149577  0.85715552     0.19900
C449        C  0.24889459  0.74933707  0.83811250    -0.13600
C450        C  0.21233291  0.78188801  0.85514958    -0.11900
C451        C  0.32636984  0.68765775  0.83968635     0.00900
C452        C  0.35659814  0.65857038  0.82526814    -0.31900
C453        C  0.17866284  0.82049830  0.90878194     0.02300
C454        C  0.14837920  0.84951572  0.92323838    -0.33600
H455        H  0.25933806  0.76232853  0.93830352     0.13300
H456        H  0.32364145  0.70488751  0.90829610     0.13200
H457        H  0.24571031  0.74585156  0.81015682     0.13000
H458        H  0.18140520  0.80329434  0.84016579     0.12000
C459        C  0.78992559  0.78573454  0.60723429     0.18400
C460        C  0.78641547  0.78574575  0.64356859    -0.10700
C461        C  0.74877021  0.75387438  0.66063835    -0.11600
C462        C  0.71440148  0.72192583  0.64143167     0.19900
C463        C  0.71789461  0.72191943  0.60510061    -0.13600
C464        C  0.75553883  0.75379079  0.58803081    -0.11900
C465        C  0.67638633  0.68866644  0.65897075     0.00900
C466        C  0.64589836  0.65976266  0.67345527    -0.31900
C467        C  0.82806682  0.81893084  0.58969408     0.02300
C468        C  0.85880217  0.84777035  0.57528890    -0.33600
H469        H  0.81269785  0.81037740  0.65866134     0.13300
H470        H  0.74652783  0.75409200  0.68874542     0.13200
H471        H  0.69162815  0.69727421  0.59001094     0.13000
H472        H  0.75779501  0.75355865  0.55992500     0.12000
loop_ 
_geom_bond_atom_site_label_1 
_geom_bond_atom_site_label_2 
_geom_bond_distance 
_geom_bond_site_symmetry_2 
_ccdc_geom_bond_type 
O1          Zr13   2.439   1_565  S
O1            C3   1.286       .  A
O2         Zr275   2.426   1_654  S
O2            C3   1.285       .  A
C3          C232   1.434       .  S
O4          Zr16   2.441       .  S
O4            C6   1.286       .  A
O5         Zr276   2.424   1_655  S
O5            C6   1.285       .  A
C6          C204   1.434       .  S
O7          Zr16   2.439   1_565  S
O7            C9   1.286       .  A
O8          Zr39   2.424   1_655  S
O8            C9   1.285       .  A
C9          C190   1.433       .  S
O10         Zr13   2.440       .  S
O10          C12   1.286       .  A
O11         Zr40   2.425   1_654  S
O11          C12   1.285       .  A
C12         C176   1.434       .  S
Zr13         O14   2.434       .  S
Zr13         O15   2.435       .  S
Zr13         O19   2.371   1_545  S
Zr13         O20   2.371       .  S
Zr13         O43   2.371   1_655  S
Zr13         O45   2.373   1_645  S
O14          H57   0.990   1_545  S
O15          H56   0.990   1_545  S
O15          H60   0.990   1_545  S
Zr16         O17   2.436       .  S
Zr16         O18   2.435       .  S
Zr16         O44   2.373   1_645  S
Zr16         O46   2.372   1_655  S
Zr16        O256   2.370       .  S
Zr16        O255   2.370   1_545  S
O17          H58   0.990       .  S
O17          H61   0.990       .  S
O18          H51   0.990   1_545  S
O19        Zr252   2.370   1_564  S
O19        Zr275   2.379   1_654  S
O20         Zr40   2.383   1_654  S
O20        Zr252   2.370   1_554  S
O20         H283   0.966       .  S
O21         Zr33   2.442       .  S
O21          C23   1.286       .  A
O22         Zr40   2.424   1_554  S
O22          C23   1.285       .  A
C23         C134   1.434       .  S
O24         Zr36   2.439   1_565  S
O24          C26   1.286       .  A
O25         Zr39   2.426       .  S
O25          C26   1.285       .  A
C26         C218   1.434       .  S
O27         Zr36   2.441       .  S
O27          C29   1.286       .  A
O28        Zr276   2.424       .  S
O28          C29   1.285       .  A
C29         C148   1.433       .  S
O30         Zr33   2.442   1_565  S
O30          C32   1.287       .  A
O31        Zr275   2.424   1_554  S
O31          C32   1.285       .  A
C32         C162   1.435       .  S
Zr33         O34   2.435       .  S
Zr33         O35   2.434       .  S
Zr33         O45   2.371   1_545  S
Zr33         O43   2.373       .  S
Zr33        O277   2.371   1_554  S
Zr33        O278   2.371   1_544  S
O34          H54   0.990       .  S
O34          H59   0.990       .  S
O35          H55   0.990       .  S
Zr36         O37   2.434       .  S
Zr36         O38   2.434       .  S
Zr36         O42   2.372   1_545  S
Zr36         O41   2.371       .  S
Zr36         O46   2.371       .  S
Zr36         O44   2.370   1_545  S
O37          H53   0.990   1_545  S
O38          H52   0.990       .  S
O38          H62   0.990       .  S
Zr39        O238   2.426   1_455  S
Zr39        O267   2.424       .  S
Zr39         O42   2.379       .  S
Zr39         O44   2.385       .  S
Zr39        O255   2.379   1_455  S
Zr39        O281   2.385       .  S
Zr40        O241   2.424   1_455  S
Zr40        O264   2.424       .  S
Zr40         O43   2.382   1_556  S
Zr40        O277   2.384       .  S
Zr40        O282   2.382       .  S
O41        Zr269   2.371       .  S
O41        Zr276   2.384       .  S
O41         H285   0.966       .  S
O42        Zr269   2.371   1_565  S
O44          H48   0.966       .  S
O45        Zr275   2.385   1_554  S
O45          H50   0.966       .  S
O46        Zr276   2.382       .  S
H47         O256   0.966       .  S
H49         O277   0.966       .  S
O63         Zr75   2.440       .  S
O63          C65   1.286       .  A
O64        Zr101   2.425       .  S
O64          C65   1.285       .  A
C65         C188   1.434       .  S
O66         Zr78   2.442       .  S
O66          C68   1.286       .  A
O67        Zr102   2.423       .  S
O67          C68   1.285       .  A
C68         C174   1.434       .  S
O69         Zr78   2.439       .  S
O69          C71   1.286       .  A
O70        Zr101   2.424       .  S
O70          C71   1.285       .  A
C71         C230   1.433       .  S
O72         Zr75   2.440       .  S
O72          C74   1.286       .  A
O73        Zr102   2.425       .  S
O73          C74   1.285       .  A
C74         C202   1.434       .  S
Zr75         O76   2.434       .  S
Zr75         O77   2.435       .  S
Zr75         O81   2.371       .  S
Zr75         O82   2.370       .  S
Zr75        O105   2.372       .  S
Zr75        O107   2.372       .  S
O76         H119   0.990       .  S
O77         H118   0.990       .  S
O77         H122   0.990       .  S
Zr78         O79   2.435       .  S
Zr78         O80   2.435       .  S
Zr78         O82   2.370       .  S
Zr78         O81   2.371       .  S
Zr78        O106   2.373       .  S
Zr78        O108   2.373       .  S
O79         H120   0.990       .  S
O79         H123   0.990       .  S
O80         H113   0.990       .  S
O81        Zr101   2.380       .  S
O82        Zr102   2.384       .  S
O82         H109   0.966       .  S
O83         Zr95   2.441       .  S
O83          C85   1.286       .  A
O84        Zr102   2.424       .  S
O84          C85   1.285       .  A
C85         C146   1.434       .  S
O86         Zr98   2.440       .  S
O86          C88   1.286       .  A
O87        Zr101   2.426       .  S
O87          C88   1.285       .  A
C88         C160   1.435       .  S
O89         Zr98   2.441       .  S
O89          C91   1.286       .  A
O90        Zr102   2.425       .  S
O90          C91   1.285       .  A
C91         C132   1.434       .  S
O92         Zr95   2.441       .  S
O92          C94   1.286       .  A
O93        Zr101   2.425       .  S
O93          C94   1.285       .  A
C94         C216   1.435       .  S
Zr95         O96   2.435       .  S
Zr95         O97   2.434       .  S
Zr95        O103   2.371       .  S
Zr95        O104   2.371       .  S
Zr95        O107   2.371       .  S
Zr95        O105   2.373       .  S
O96         H116   0.990       .  S
O96         H121   0.990       .  S
O97         H117   0.990       .  S
Zr98         O99   2.433       .  S
Zr98        O100   2.434       .  S
Zr98        O104   2.372       .  S
Zr98        O103   2.370       .  S
Zr98        O108   2.372       .  S
Zr98        O106   2.370       .  S
O99         H115   0.990       .  S
O100        H114   0.990       .  S
O100        H124   0.990       .  S
Zr101       O104   2.379       .  S
Zr101       O106   2.385       .  S
Zr101       O107   2.385       .  S
Zr102       O103   2.383       .  S
Zr102       O105   2.382       .  S
Zr102       O108   2.382       .  S
O103        H111   0.966       .  S
O106        H110   0.966       .  S
O107        H112   0.966       .  S
C125        C133   1.439       .  S
C125        C126   1.401       .  A
C125        C130   1.401       .  A
C126        C127   1.399       .  A
C126        H135   1.083       .  S
C127        C128   1.401       .  A
C127        H136   1.083       .  S
C128        C131   1.439       .  S
C128        C129   1.401       .  A
C129        C130   1.399       .  A
C129        H137   1.083       .  S
C130        H138   1.083       .  S
C131        C132   1.205       .  T
C133        C134   1.205       .  T
C139        C147   1.438       .  S
C139        C140   1.401       .  A
C139        C144   1.401       .  A
C140        C141   1.399       .  A
C140        H149   1.083       .  S
C141        C142   1.401       .  A
C141        H150   1.083       .  S
C142        C145   1.439       .  S
C142        C143   1.401       .  A
C143        C144   1.398       .  A
C143        H151   1.083       .  S
C144        H152   1.083       .  S
C145        C146   1.205       .  T
C147        C148   1.205       .  T
C153        C161   1.439       .  S
C153        C154   1.401       .  A
C153        C158   1.401       .  A
C154        C155   1.399       .  A
C154        H163   1.083       .  S
C155        C156   1.401       .  A
C155        H164   1.083       .  S
C156        C159   1.439       .  S
C156        C157   1.401       .  A
C157        C158   1.399       .  A
C157        H165   1.083       .  S
C158        H166   1.083       .  S
C159        C160   1.206       .  T
C161        C162   1.206       .  T
C167        C175   1.439       .  S
C167        C168   1.401       .  A
C167        C172   1.401       .  A
C168        C169   1.399       .  A
C168        H177   1.083       .  S
C169        C170   1.402       .  A
C169        H178   1.083       .  S
C170        C173   1.439       .  S
C170        C171   1.401       .  A
C171        C172   1.399       .  A
C171        H179   1.083       .  S
C172        H180   1.083       .  S
C173        C174   1.205       .  T
C175        C176   1.205       .  T
C181        C189   1.438       .  S
C181        C182   1.401       .  A
C181        C186   1.402       .  A
C182        C183   1.398       .  A
C182        H191   1.083       .  S
C183        C184   1.401       .  A
C183        H192   1.083       .  S
C184        C187   1.439       .  S
C184        C185   1.401       .  A
C185        C186   1.399       .  A
C185        H193   1.083       .  S
C186        H194   1.084       .  S
C187        C188   1.205       .  T
C189        C190   1.205       .  T
C195        C203   1.439       .  S
C195        C196   1.401       .  A
C195        C200   1.401       .  A
C196        C197   1.399       .  A
C196        H205   1.083       .  S
C197        C198   1.401       .  A
C197        H206   1.083       .  S
C198        C201   1.439       .  S
C198        C199   1.401       .  A
C199        C200   1.398       .  A
C199        H207   1.083       .  S
C200        H208   1.083       .  S
C201        C202   1.205       .  T
C203        C204   1.205       .  T
C209        C217   1.439       .  S
C209        C210   1.401       .  A
C209        C214   1.401       .  A
C210        C211   1.399       .  A
C210        H219   1.083       .  S
C211        C212   1.401       .  A
C211        H220   1.083       .  S
C212        C215   1.439       .  S
C212        C213   1.401       .  A
C213        C214   1.399       .  A
C213        H221   1.083       .  S
C214        H222   1.083       .  S
C215        C216   1.206       .  T
C217        C218   1.206       .  T
C223        C231   1.439       .  S
C223        C224   1.401       .  A
C223        C228   1.401       .  A
C224        C225   1.399       .  A
C224        H233   1.083       .  S
C225        C226   1.401       .  A
C225        H234   1.083       .  S
C226        C229   1.438       .  S
C226        C227   1.401       .  A
C227        C228   1.399       .  A
C227        H235   1.083       .  S
C228        H236   1.083       .  S
C229        C230   1.205       .  T
C231        C232   1.205       .  T
O237       Zr249   2.439   1_565  S
O237        C239   1.286       .  A
O238        C239   1.285       .  A
C239        C468   1.434       .  S
O240       Zr252   2.441       .  S
O240        C242   1.286       .  A
O241        C242   1.285       .  A
C242        C440   1.434       .  S
O243       Zr252   2.439   1_565  S
O243        C245   1.286       .  A
O244       Zr275   2.424   1_655  S
O244        C245   1.285       .  A
C245        C426   1.433       .  S
O246       Zr249   2.440       .  S
O246        C248   1.286       .  A
O247       Zr276   2.425   1_655  S
O247        C248   1.285       .  A
C248        C412   1.434       .  S
Zr249       O250   2.434       .  S
Zr249       O251   2.435       .  S
Zr249       O255   2.371   1_545  S
Zr249       O256   2.371       .  S
Zr249       O279   2.371   1_655  S
Zr249       O281   2.373   1_645  S
O250        H293   0.990   1_545  S
O251        H292   0.990   1_545  S
O251        H296   0.990   1_545  S
Zr252       O253   2.436       .  S
Zr252       O254   2.435       .  S
Zr252       O280   2.373   1_645  S
Zr252       O282   2.372   1_655  S
O253        H294   0.990       .  S
O253        H297   0.990       .  S
O254        H287   0.990   1_545  S
O256       Zr276   2.383   1_655  S
O257       Zr269   2.442       .  S
O257        C259   1.286       .  A
O258       Zr276   2.424       .  S
O258        C259   1.285       .  A
C259        C370   1.434       .  S
O260       Zr272   2.439   1_565  S
O260        C262   1.286       .  A
O261       Zr275   2.426       .  S
O261        C262   1.285       .  A
C262        C454   1.434       .  S
O263       Zr272   2.441       .  S
O263        C265   1.286       .  A
O264        C265   1.285       .  A
C265        C384   1.433       .  S
O266       Zr269   2.442   1_565  S
O266        C268   1.287       .  A
O267        C268   1.285       .  A
C268        C398   1.435       .  S
Zr269       O270   2.435       .  S
Zr269       O271   2.434       .  S
Zr269       O281   2.371   1_545  S
Zr269       O279   2.373       .  S
O270        H290   0.990       .  S
O270        H295   0.990       .  S
O271        H291   0.990       .  S
Zr272       O273   2.434       .  S
Zr272       O274   2.434       .  S
Zr272       O278   2.372   1_545  S
Zr272       O277   2.371       .  S
Zr272       O282   2.371       .  S
Zr272       O280   2.370   1_545  S
O273        H289   0.990   1_545  S
O274        H288   0.990       .  S
O274        H298   0.990       .  S
Zr275       O278   2.379       .  S
Zr275       O280   2.385       .  S
Zr276       O279   2.382       .  S
O280        H284   0.966       .  S
O281        H286   0.966       .  S
O299       Zr311   2.440       .  S
O299        C301   1.286       .  A
O300       Zr337   2.425       .  S
O300        C301   1.285       .  A
C301        C424   1.434       .  S
O302       Zr314   2.442       .  S
O302        C304   1.286       .  A
O303       Zr338   2.423       .  S
O303        C304   1.285       .  A
C304        C410   1.434       .  S
O305       Zr314   2.439       .  S
O305        C307   1.286       .  A
O306       Zr337   2.424       .  S
O306        C307   1.285       .  A
C307        C466   1.433       .  S
O308       Zr311   2.440       .  S
O308        C310   1.286       .  A
O309       Zr338   2.425       .  S
O309        C310   1.285       .  A
C310        C438   1.434       .  S
Zr311       O312   2.434       .  S
Zr311       O313   2.435       .  S
Zr311       O317   2.371       .  S
Zr311       O318   2.370       .  S
Zr311       O341   2.372       .  S
Zr311       O343   2.372       .  S
O312        H355   0.990       .  S
O313        H354   0.990       .  S
O313        H358   0.990       .  S
Zr314       O315   2.435       .  S
Zr314       O316   2.435       .  S
Zr314       O318   2.370       .  S
Zr314       O317   2.371       .  S
Zr314       O342   2.373       .  S
Zr314       O344   2.373       .  S
O315        H356   0.990       .  S
O315        H359   0.990       .  S
O316        H349   0.990       .  S
O317       Zr337   2.380       .  S
O318       Zr338   2.384       .  S
O318        H345   0.966       .  S
O319       Zr331   2.441       .  S
O319        C321   1.286       .  A
O320       Zr338   2.424       .  S
O320        C321   1.285       .  A
C321        C382   1.434       .  S
O322       Zr334   2.440       .  S
O322        C324   1.286       .  A
O323       Zr337   2.426       .  S
O323        C324   1.285       .  A
C324        C396   1.435       .  S
O325       Zr334   2.441       .  S
O325        C327   1.286       .  A
O326       Zr338   2.425       .  S
O326        C327   1.285       .  A
C327        C368   1.434       .  S
O328       Zr331   2.441       .  S
O328        C330   1.286       .  A
O329       Zr337   2.425       .  S
O329        C330   1.285       .  A
C330        C452   1.435       .  S
Zr331       O332   2.435       .  S
Zr331       O333   2.434       .  S
Zr331       O339   2.371       .  S
Zr331       O340   2.371       .  S
Zr331       O343   2.371       .  S
Zr331       O341   2.373       .  S
O332        H352   0.990       .  S
O332        H357   0.990       .  S
O333        H353   0.990       .  S
Zr334       O335   2.433       .  S
Zr334       O336   2.434       .  S
Zr334       O340   2.372       .  S
Zr334       O339   2.370       .  S
Zr334       O344   2.372       .  S
Zr334       O342   2.370       .  S
O335        H351   0.990       .  S
O336        H350   0.990       .  S
O336        H360   0.990       .  S
Zr337       O340   2.379       .  S
Zr337       O342   2.385       .  S
Zr337       O343   2.385       .  S
Zr338       O339   2.383       .  S
Zr338       O341   2.382       .  S
Zr338       O344   2.382       .  S
O339        H347   0.966       .  S
O342        H346   0.966       .  S
O343        H348   0.966       .  S
C361        C369   1.439       .  S
C361        C362   1.401       .  A
C361        C366   1.401       .  A
C362        C363   1.399       .  A
C362        H371   1.083       .  S
C363        C364   1.401       .  A
C363        H372   1.083       .  S
C364        C367   1.439       .  S
C364        C365   1.401       .  A
C365        C366   1.399       .  A
C365        H373   1.083       .  S
C366        H374   1.083       .  S
C367        C368   1.205       .  T
C369        C370   1.205       .  T
C375        C383   1.438       .  S
C375        C376   1.401       .  A
C375        C380   1.401       .  A
C376        C377   1.399       .  A
C376        H385   1.083       .  S
C377        C378   1.401       .  A
C377        H386   1.083       .  S
C378        C381   1.439       .  S
C378        C379   1.401       .  A
C379        C380   1.398       .  A
C379        H387   1.083       .  S
C380        H388   1.083       .  S
C381        C382   1.205       .  T
C383        C384   1.205       .  T
C389        C397   1.439       .  S
C389        C390   1.401       .  A
C389        C394   1.401       .  A
C390        C391   1.399       .  A
C390        H399   1.083       .  S
C391        C392   1.401       .  A
C391        H400   1.083       .  S
C392        C395   1.439       .  S
C392        C393   1.401       .  A
C393        C394   1.399       .  A
C393        H401   1.083       .  S
C394        H402   1.083       .  S
C395        C396   1.206       .  T
C397        C398   1.206       .  T
C403        C411   1.439       .  S
C403        C404   1.401       .  A
C403        C408   1.401       .  A
C404        C405   1.399       .  A
C404        H413   1.083       .  S
C405        C406   1.402       .  A
C405        H414   1.083       .  S
C406        C409   1.439       .  S
C406        C407   1.401       .  A
C407        C408   1.399       .  A
C407        H415   1.083       .  S
C408        H416   1.083       .  S
C409        C410   1.205       .  T
C411        C412   1.205       .  T
C417        C425   1.438       .  S
C417        C418   1.401       .  A
C417        C422   1.402       .  A
C418        C419   1.398       .  A
C418        H427   1.083       .  S
C419        C420   1.401       .  A
C419        H428   1.083       .  S
C420        C423   1.439       .  S
C420        C421   1.401       .  A
C421        C422   1.399       .  A
C421        H429   1.083       .  S
C422        H430   1.083       .  S
C423        C424   1.205       .  T
C425        C426   1.205       .  T
C431        C439   1.439       .  S
C431        C432   1.401       .  A
C431        C436   1.401       .  A
C432        C433   1.399       .  A
C432        H441   1.083       .  S
C433        C434   1.401       .  A
C433        H442   1.083       .  S
C434        C437   1.439       .  S
C434        C435   1.401       .  A
C435        C436   1.398       .  A
C435        H443   1.083       .  S
C436        H444   1.083       .  S
C437        C438   1.205       .  T
C439        C440   1.205       .  T
C445        C453   1.439       .  S
C445        C446   1.401       .  A
C445        C450   1.401       .  A
C446        C447   1.399       .  A
C446        H455   1.083       .  S
C447        C448   1.401       .  A
C447        H456   1.083       .  S
C448        C451   1.439       .  S
C448        C449   1.401       .  A
C449        C450   1.399       .  A
C449        H457   1.083       .  S
C450        H458   1.083       .  S
C451        C452   1.206       .  T
C453        C454   1.206       .  T
C459        C467   1.439       .  S
C459        C460   1.401       .  A
C459        C464   1.401       .  A
C460        C461   1.399       .  A
C460        H469   1.083       .  S
C461        C462   1.401       .  A
C461        H470   1.083       .  S
C462        C465   1.438       .  S
C462        C463   1.401       .  A
C463        C464   1.399       .  A
C463        H471   1.083       .  S
C464        H472   1.083       .  S
C465        C466   1.205       .  T
C467        C468   1.205       .  T
