geometry optimzed in LAMMPS
_audit_creation_date              2020-11-30 
_audit_creation_method            'lammps2cif' 
_symmetry_space_group_name_H-M    'P1' 
_symmetry_Int_Tables_number       1 
_symmetry_cell_setting            triclinic 
loop_ 
_symmetry_equiv_pos_as_xyz 
  x,y,z 
_cell_length_a                    22.36616912 
_cell_length_b                    39.30164651916571 
_cell_length_c                    27.544361384414863 
_cell_angle_alpha                 90.93537246425859 
_cell_angle_beta                  88.66519916215118 
_cell_angle_gamma                 90.32541388526397 
loop_ 
_atom_site_label 
_atom_site_type_symbol 
_atom_site_fract_x 
_atom_site_fract_y 
_atom_site_fract_z 
_atom_site_charge 
C1          C  0.38424514  0.10383846  0.25152296    -0.01500
C2          C  0.08555824  0.31912333  0.24873940    -0.01500
C3          C  0.08634942  0.10292249  0.00007928    -0.01500
C4          C  0.38124288  0.31905564  0.00122359    -0.01500
O5          O  0.02617209  0.32559114  0.32885284    -0.56800
C6          C  0.40457438  0.00548680  0.45320072     0.75800
O7          O  0.00300332  0.08033711  0.45088664    -0.58000
C8          C  0.06162831  0.00562810  0.29727713     0.75800
C9          C  0.40853366  0.08127153  0.29457485     0.78200
Cd10       Cd  0.48271463  0.04413818  0.37526296     1.37500
O11         O  0.43681296  0.32509662  0.41932359    -0.56800
O12         O  0.37999952  0.06668431  0.32879621    -0.55600
C13         C  0.05933658  0.08133833  0.45593521     0.78200
O14         O  0.46466101  0.07848709  0.29925495    -0.58000
O15         O  0.40130818  0.03742304  0.44808512    -0.56400
O16         O  0.06800027  0.03730693  0.30507434    -0.56400
O17         O  0.08646426  0.06531486  0.42176186    -0.55600
O18         O  0.40943511  0.32909797  0.09074574    -0.56800
C19         C  0.07126160  0.00810415  0.20124816     0.75800
O20         O  0.00547091  0.08619096  0.05889033    -0.58000
C21         C  0.39632262  0.00839613  0.04940309     0.75800
C22         C  0.41040344  0.08323498  0.20528435     0.78200
Cd23       Cd  0.48492870  0.04356235  0.12531272     1.37500
O24         O  0.05842874  0.32846921  0.15941673    -0.56800
O25         O  0.38404208  0.06136950  0.17896944    -0.55600
C26         C  0.05993114  0.08232304  0.04549913     0.78200
O27         O  0.46545034  0.08629945  0.19309438    -0.58000
O28         O  0.05140052  0.03821740  0.20510800    -0.56400
O29         O  0.41692276  0.03841207  0.04632712    -0.56400
O30         O  0.08558201  0.06005344  0.07035744    -0.55600
C31         C  0.01157923  0.18377318  0.46003810    -0.04500
C32         C  0.02573287  0.20448898  0.99885245     0.09700
C33         C  0.04677842  0.19113925  0.04160491    -0.01800
C34         C  0.05173199  0.15644324  0.04514048    -0.00100
C35         C  0.05132287  0.13594686  0.00145801    -0.03700
C36         C  0.03413700  0.15183151  0.45734390     0.03300
C37         C  0.49385211  0.23539662  0.00341647     0.10200
C38         C  0.04396577  0.21192262  0.08495769     0.36000
C39         C  0.04499674  0.13890984  0.40820515     0.39500
C40         C  0.43903105  0.23379618  0.02877620    -0.04100
C41         C  0.41043446  0.26361431  0.04008065     0.03100
C42         C  0.42763521  0.29250339  0.01274439    -0.03700
C43         C  0.48823452  0.29506331  0.49767489     0.00100
C44         C  0.52015842  0.26574266  0.48925343    -0.02500
C45         C  0.41138675  0.20108139  0.03904915     0.36800
C46         C  0.52033355  0.32669165  0.49597745     0.40400
C47         C  0.35845484  0.26295057  0.07245329     0.39500
C48         C  0.07841398  0.26742560  0.46549254     0.36500
C49         C  0.46348963  0.19217634  0.42898561     0.37100
C50         C  0.05828360  0.14316771  0.09365830     0.40400
N51         N  0.31643726  0.26138780  0.09758881    -0.37700
N52         N  0.39242149  0.17388722  0.04345631    -0.39300
N53         N  0.55164488  0.01661639  0.49471958    -0.37000
N54         N  0.12468136  0.27184700  0.44705695    -0.39400
N55         N  0.03312382  0.22979603  0.11724157    -0.39200
N56         N  0.06149621  0.13175033  0.13192464    -0.36800
N57         N  0.05364993  0.12823351  0.36922190    -0.37900
N58         N  0.42504669  0.19786130  0.40339632    -0.39500
C59         C  0.21281150  0.16997639  0.04003880    -0.04500
C60         C  0.20660486  0.19438287  0.00246801     0.09700
C61         C  0.18337529  0.17865662  0.45983532    -0.01800
C62         C  0.16763564  0.14280828  0.45602954    -0.00100
C63         C  0.15241191  0.12279190  0.99753136    -0.03700
C64         C  0.18220196  0.13655623  0.03953702     0.03300
C65         C  0.24276929  0.23056118  0.99965457     0.10200
C66         C  0.17599529  0.20014571  0.41932863     0.36000
C67         C  0.18252586  0.11535794  0.08163935     0.39500
C68         C  0.29564613  0.23204386  0.47100567    -0.04100
C69         C  0.32829664  0.26341779  0.46103972     0.03100
C70         C  0.32094284  0.29437992  0.98991007    -0.03700
C71         C  0.26521025  0.29410616  0.01680615     0.00100
C72         C  0.22666706  0.26345678  0.02059700    -0.02500
C73         C  0.31734378  0.19910367  0.45519912     0.36800
C74         C  0.24879170  0.32500177  0.04284600     0.40400
C75         C  0.37438477  0.26298683  0.42380279     0.39500
C76         C  0.17038298  0.26703033  0.04621466     0.36500
C77         C  0.25700522  0.17797665  0.07551661     0.37100
C78         C  0.17174267  0.12554860  0.40950897     0.40400
N79         N  0.41143943  0.26342535  0.39384054    -0.37700
N80         N  0.32857934  0.17098755  0.44604392    -0.39300
N81         N  0.23547980  0.01649258  0.06342371    -0.37000
N82         N  0.12455058  0.27272387  0.06467985    -0.39400
N83         N  0.16982803  0.21993259  0.38958881    -0.39200
N84         N  0.17501938  0.11112800  0.37255967    -0.36800
N85         N  0.17941373  0.09779156  0.11492176    -0.37900
N86         N  0.29365608  0.18547597  0.10266101    -0.39500
C87         C  0.41730175  0.19157911  0.21802208    -0.04500
C88         C  0.44042899  0.20537517  0.26052722     0.09700
C89         C  0.45857215  0.18467547  0.29745611    -0.01800
C90         C  0.43961620  0.15164668  0.29783080    -0.00100
C91         C  0.42226706  0.13600163  0.25271820    -0.03700
C92         C  0.42110984  0.15702561  0.21081992     0.03300
C93         C  0.47329805  0.23585149  0.25402802     0.10200
C94         C  0.50675720  0.19465323  0.32832089     0.36000
C95         C  0.41992440  0.14441341  0.16086289     0.39500
C96         C  0.44691271  0.26699172  0.26424487    -0.04100
C97         C  0.97805586  0.29559325  0.25053031     0.03100
C98         C  0.03896040  0.29223992  0.23659073    -0.03100
C99         C  0.05597973  0.26166902  0.21245297     0.00100
C100        C  0.02697594  0.23266915  0.22697041    -0.02500
C101        C  0.38942402  0.27017990  0.28906568     0.36800
C102        C  0.10796432  0.25867633  0.18020357     0.40400
C103        C  0.94629038  0.32713106  0.24952367     0.39500
C104        C  0.05265010  0.19934825  0.21708332     0.36500
C105        C  0.41065752  0.21266491  0.17654474     0.37100
C106        C  0.43172421  0.13727937  0.34577059     0.40400
N107        N  0.91513556  0.01693122  0.24909131    -0.37700
N108        N  0.34381302  0.27541834  0.30826609    -0.39300
N109        N  0.14966901  0.25441003  0.15533042    -0.37000
N110        N  0.07010001  0.17184224  0.21303483    -0.39400
N111        N  0.04512342  0.20144557  0.35394979    -0.39200
N112        N  0.42445251  0.12518565  0.38356342    -0.36800
N113        N  0.42025831  0.13406351  0.12132002    -0.37900
N114        N  0.41208416  0.22924787  0.14274328    -0.39500
C115        C  0.25691158  0.17048337  0.21173985    -0.04500
C116        C  0.26286252  0.19623960  0.24879805     0.09700
C117        C  0.28661653  0.18184130  0.29149084    -0.01800
C118        C  0.30472381  0.14639225  0.29514907    -0.00100
C119        C  0.31945464  0.12522156  0.25362663    -0.03700
C120        C  0.28978573  0.13799245  0.21157326     0.03300
C121        C  0.22596198  0.23219808  0.25112550     0.10200
C122        C  0.28978539  0.20398939  0.33284190     0.36000
C123        C  0.29320752  0.11757833  0.16777125     0.39500
C124        C  0.17279621  0.23389929  0.27958052    -0.04100
C125        C  0.14008201  0.26533955  0.28949107     0.03100
C126        C  0.14619440  0.29536960  0.25980740    -0.03700
C127        C  0.20137137  0.29489337  0.23243887     0.00100
C128        C  0.24135147  0.26498550  0.23011199    -0.02500
C129        C  0.15064784  0.20115193  0.29505592     0.36800
C130        C  0.21600590  0.32485927  0.20468590     0.40400
C131        C  0.09588053  0.26600571  0.32806384     0.39500
C132        C  0.29860489  0.27009911  0.20690491     0.36500
C133        C  0.20918802  0.17514110  0.17854133     0.37100
C134        C  0.30275509  0.13036805  0.34175642     0.40400
N135        N  0.06057229  0.26761040  0.35930457    -0.37700
N136        N  0.13884231  0.17330697  0.30472146    -0.39300
N137        N  0.22775107  0.01553701  0.18255709    -0.37000
N138        N  0.34401660  0.27866738  0.19030129    -0.39400
N139        N  0.29124351  0.22416165  0.36351917    -0.39200
N140        N  0.30062007  0.11648050  0.37848139    -0.36800
N141        N  0.29917553  0.10124877  0.13267962    -0.37900
N142        N  0.16987223  0.17936627  0.15286310    -0.39500
C143        C  0.38424765  0.10384811  0.75151154    -0.01500
C144        C  0.08558315  0.31914009  0.74874361    -0.01500
C145        C  0.08633302  0.10291889  0.50007855    -0.01500
C146        C  0.38124674  0.31904816  0.50123101    -0.01500
O147        O  0.02625780  0.32560602  0.82888490    -0.56800
C148        C  0.40457249  0.00549658  0.95319388     0.75800
O149        O  0.00301851  0.08034804  0.95088195    -0.58000
C150        C  0.06166142  0.00565104  0.79727988     0.75800
C151        C  0.40853151  0.08127577  0.79456045     0.78200
Cd152      Cd  0.48272384  0.04414837  0.87525866     1.37500
O153        O  0.43677485  0.32510225  0.91929779    -0.56800
O154        O  0.38000237  0.06670376  0.82879624    -0.55600
C155        C  0.05935194  0.08134251  0.95593609     0.78200
O156        O  0.46465994  0.07847776  0.79922553    -0.58000
O157        O  0.40134870  0.03743600  0.94809965    -0.56400
O158        O  0.06796961  0.03733703  0.80503837    -0.56400
O159        O  0.08647737  0.06531601  0.92176462    -0.55600
O160        O  0.40943423  0.32909307  0.59075043    -0.56800
C161        C  0.07127344  0.00811277  0.70124653     0.75800
O162        O  0.00544473  0.08616938  0.55886555    -0.58000
C163        C  0.39632132  0.00839111  0.54940672     0.75800
C164        C  0.41039692  0.08324587  0.70527026     0.78200
Cd165      Cd  0.48492156  0.04356125  0.62531280     1.37500
O166        O  0.05843447  0.32847382  0.65941986    -0.56800
O167        O  0.38404668  0.06135259  0.67899172    -0.55600
C168        C  0.05991693  0.08231654  0.54549515     0.78200
O169        O  0.46543130  0.08632916  0.69304865    -0.58000
O170        O  0.05140634  0.03822651  0.70510128    -0.56400
O171        O  0.41691621  0.03840669  0.54632869    -0.56400
O172        O  0.08557911  0.06006433  0.57037277    -0.55600
C173        C  0.01154995  0.18376344  0.96003769    -0.04500
C174        C  0.02577723  0.20449389  0.49885829     0.09700
C175        C  0.04680817  0.19113350  0.54160827    -0.01800
C176        C  0.05170699  0.15643364  0.54514360    -0.00100
C177        C  0.05129748  0.13594217  0.50145813    -0.03700
C178        C  0.03414653  0.15183088  0.95734141     0.03300
C179        C  0.49389351  0.23540047  0.50343595     0.10200
C180        C  0.04401336  0.21191299  0.58496341     0.36000
C181        C  0.04504232  0.13891556  0.90820508     0.39500
C182        C  0.43906243  0.23379153  0.52878502    -0.04100
C183        C  0.41044523  0.26360390  0.54008027     0.03100
C184        C  0.42764190  0.29249611  0.51274985    -0.03700
C185        C  0.48822201  0.29506110  0.99765049     0.00100
C186        C  0.52012995  0.26573551  0.98922698    -0.02500
C187        C  0.41141762  0.20107399  0.53903454     0.36800
C188        C  0.52033341  0.32668614  0.99594914     0.40400
C189        C  0.35846602  0.26293309  0.57245366     0.39500
C190        C  0.07838417  0.26740780  0.96546371     0.36500
C191        C  0.46346212  0.19215476  0.92897495     0.37100
C192        C  0.05819437  0.14315309  0.59366612     0.40400
N193        N  0.31645598  0.26136489  0.59759689    -0.37700
N194        N  0.39244487  0.17387922  0.54341342    -0.39300
N195        N  0.55164852  0.01660964  0.99469287    -0.37000
N196        N  0.12465267  0.27181870  0.94702558    -0.39400
N197        N  0.03318365  0.22978042  0.61725549    -0.39200
N198        N  0.06135693  0.13173473  0.63193517    -0.36800
N199        N  0.05371998  0.12824312  0.86922357    -0.37900
N200        N  0.42502358  0.19783340  0.90337735    -0.39500
C201        C  0.21281134  0.16997111  0.54003917    -0.04500
C202        C  0.20661206  0.19437733  0.50247074     0.09700
C203        C  0.18338196  0.17865792  0.95983065    -0.01800
C204        C  0.16765307  0.14280853  0.95602594    -0.00100
C205        C  0.15239182  0.12279145  0.49753520    -0.03700
C206        C  0.18218015  0.13655768  0.53954535     0.03300
C207        C  0.24277872  0.23055404  0.49965896     0.10200
C208        C  0.17602814  0.20014112  0.91931305     0.36000
C209        C  0.18245970  0.11537876  0.58166781     0.39500
C210        C  0.29564279  0.23204736  0.97100720    -0.04100
C211        C  0.32829742  0.26341905  0.96103894     0.03100
C212        C  0.32094610  0.29437398  0.48991948    -0.03700
C213        C  0.26521973  0.29409786  0.51682065     0.00100
C214        C  0.22667916  0.26344812  0.52061171    -0.02500
C215        C  0.31734268  0.19910453  0.95521493     0.36800
C216        C  0.24879652  0.32499365  0.54285896     0.40400
C217        C  0.37440573  0.26297806  0.92381780     0.39500
C218        C  0.17039947  0.26701970  0.54623393     0.36500
C219        C  0.25701975  0.17796186  0.57550978     0.37100
C220        C  0.17178984  0.12554277  0.90951075     0.40400
N221        N  0.41147902  0.26340760  0.89386981    -0.37700
N222        N  0.32857640  0.17098554  0.94607937    -0.39300
N223        N  0.23547850  0.01648521  0.56343379    -0.37000
N224        N  0.12456974  0.27271671  0.56469941    -0.39400
N225        N  0.16988544  0.21992333  0.88956211    -0.39200
N226        N  0.17508801  0.11111651  0.87256722    -0.36800
N227        N  0.17931593  0.09783742  0.61497521    -0.37900
N228        N  0.29368509  0.18545196  0.60264727    -0.39500
C229        C  0.41732132  0.19159889  0.71803111    -0.04500
C230        C  0.44045576  0.20538542  0.76054099     0.09700
C231        C  0.45860651  0.18467555  0.79745830    -0.01800
C232        C  0.43964834  0.15164722  0.79782198    -0.00100
C233        C  0.42227010  0.13601221  0.75270922    -0.03700
C234        C  0.42109501  0.15704480  0.71082157     0.03300
C235        C  0.47332641  0.23586452  0.75405445     0.10200
C236        C  0.50678885  0.19464919  0.82832905     0.36000
C237        C  0.41984646  0.14443755  0.66086392     0.39500
C238        C  0.44694116  0.26700374  0.76428218    -0.04100
C239        C  0.97808272  0.29560750  0.75057188     0.03100
C240        C  0.03898060  0.29225646  0.73660833    -0.03100
C241        C  0.05598983  0.26168691  0.71246297     0.00100
C242        C  0.02699534  0.23268612  0.72698516    -0.02500
C243        C  0.38944911  0.27019325  0.78909721     0.36800
C244        C  0.10797571  0.25869601  0.68021426     0.40400
C245        C  0.94631424  0.32714359  0.74956696     0.39500
C246        C  0.05266142  0.19936537  0.71707711     0.36500
C247        C  0.41070117  0.21269376  0.67655835     0.37100
C248        C  0.43178488  0.13726719  0.84575624     0.40400
N249        N  0.91515120  0.01693948  0.74913033    -0.37700
N250        N  0.34383853  0.27544201  0.80829119    -0.39300
N251        N  0.14968680  0.25442893  0.65534786    -0.37000
N252        N  0.07010268  0.17185884  0.71300574    -0.39400
N253        N  0.04515251  0.20143496  0.85396431    -0.39200
N254        N  0.42452864  0.12516123  0.88354285    -0.36800
N255        N  0.42013504  0.13408721  0.62132129    -0.37900
N256        N  0.41215886  0.22928750  0.64276729    -0.39500
C257        C  0.25691492  0.17049110  0.71173058    -0.04500
C258        C  0.26288471  0.19625329  0.74878182     0.09700
C259        C  0.28664692  0.18185782  0.79147256    -0.01800
C260        C  0.30474588  0.14640989  0.79513934    -0.00100
C261        C  0.31945704  0.12523113  0.75362123    -0.03700
C262        C  0.28977503  0.13799435  0.71157053     0.03300
C263        C  0.22598829  0.23221291  0.75111085     0.10200
C264        C  0.28982850  0.20400706  0.83282256     0.36000
C265        C  0.29315885  0.11756088  0.66778504     0.39500
C266        C  0.17281846  0.23390960  0.77956292    -0.04100
C267        C  0.14010593  0.26534840  0.78948317     0.03100
C268        C  0.14621967  0.29538426  0.75980897    -0.03700
C269        C  0.20140082  0.29491238  0.73244426     0.00100
C270        C  0.24138207  0.26500412  0.73011223    -0.02500
C271        C  0.15066596  0.20116026  0.79502779     0.36800
C272        C  0.21603898  0.32488499  0.70470670     0.40400
C273        C  0.09588715  0.26600197  0.82804242     0.39500
C274        C  0.29863956  0.27012313  0.70691169     0.36500
C275        C  0.20919212  0.17515193  0.67853120     0.37100
C276        C  0.30280223  0.13039504  0.84175295     0.40400
N277        N  0.06055719  0.26759538  0.85926817    -0.37700
N278        N  0.13885689  0.17331468  0.80468556    -0.39300
N279        N  0.22778526  0.01556846  0.68259148    -0.37000
N280        N  0.34405130  0.27869519  0.69031009    -0.39400
N281        N  0.29129995  0.22417099  0.86351136    -0.39200
N282        N  0.30068331  0.11651568  0.87848415    -0.36800
N283        N  0.29909784  0.10121080  0.63270986    -0.37900
N284        N  0.16987829  0.17937897  0.65285154    -0.39500
C285        C  0.38424638  0.43717129  0.25152019    -0.01500
C286        C  0.08555850  0.65245727  0.24873706    -0.01500
C287        C  0.08635172  0.43625625  0.00007736    -0.01500
C288        C  0.38124320  0.65238925  0.00122129    -0.01500
O289        O  0.02617264  0.65892439  0.32885030    -0.56800
C290        C  0.40457663  0.33881989  0.45320017     0.75800
O291        O  0.00300595  0.41367079  0.45088494    -0.58000
C292        C  0.06163080  0.33896181  0.29727555     0.75800
C293        C  0.40853541  0.41460449  0.29457313     0.78200
Cd294      Cd  0.48271618  0.37747159  0.37526146     1.37500
O295        O  0.43681280  0.65843017  0.41932114    -0.56800
O296        O  0.38000125  0.40001721  0.32879383    -0.55600
C297        C  0.05933602  0.41467152  0.45593220     0.78200
O298        O  0.46466250  0.41182061  0.29925315    -0.58000
O299        O  0.40131189  0.37075729  0.44808567    -0.56400
O300        O  0.06800381  0.37063957  0.30507492    -0.56400
O301        O  0.08646617  0.39864837  0.42176009    -0.55600
O302        O  0.40943513  0.66243185  0.09074298    -0.56800
C303        C  0.07126433  0.34143787  0.20124699     0.75800
O304        O  0.00547234  0.41952387  0.05888795    -0.58000
C305        C  0.39632582  0.34173136  0.04940205     0.75800
C306        C  0.41040535  0.41656893  0.20528335     0.78200
Cd307      Cd  0.48493197  0.37689597  0.12531159     1.37500
O308        O  0.05843002  0.66180289  0.15941438    -0.56800
O309        O  0.38404442  0.39470275  0.17896677    -0.55600
C310        C  0.05993406  0.41565668  0.04549709     0.78200
O311        O  0.46545279  0.41963285  0.19309270    -0.58000
O312        O  0.05140238  0.37155079  0.20510782    -0.56400
O313        O  0.41692437  0.37174535  0.04632710    -0.56400
O314        O  0.08558497  0.39338813  0.07035632    -0.55600
C315        C  0.01158016  0.51710688  0.46003539    -0.04500
C316        C  0.02573390  0.53782327  0.99885042     0.09700
C317        C  0.04677942  0.52447323  0.04160074    -0.01800
C318        C  0.05173235  0.48977659  0.04513830    -0.00100
C319        C  0.05132308  0.46928075  0.00145465    -0.03700
C320        C  0.03413777  0.48516508  0.45734029     0.03300
C321        C  0.49385297  0.56873031  0.00341278     0.10200
C322        C  0.04396762  0.54525648  0.08495378     0.36000
C323        C  0.04499793  0.47224313  0.40820252     0.39500
C324        C  0.43903277  0.56713026  0.02877304    -0.04100
C325        C  0.41043547  0.59694765  0.04007826     0.03100
C326        C  0.42763667  0.62583725  0.01274170    -0.03700
C327        C  0.48823730  0.62839747  0.49767094     0.00100
C328        C  0.52015877  0.59907658  0.48924970    -0.02500
C329        C  0.41138828  0.53441532  0.03904672     0.36800
C330        C  0.52033502  0.66002530  0.49597395     0.40400
C331        C  0.35845611  0.59628445  0.07245081     0.39500
C332        C  0.07841510  0.60075917  0.46548827     0.36500
C333        C  0.46349034  0.52550945  0.42898270     0.37100
C334        C  0.05828185  0.47650162  0.09365616     0.40400
N335        N  0.31643902  0.59472170  0.09758610    -0.37700
N336        N  0.39242286  0.50722082  0.04345492    -0.39300
N337        N  0.55164736  0.34995058  0.49471862    -0.37000
N338        N  0.12468187  0.60518057  0.44705299    -0.39400
N339        N  0.03312572  0.56313059  0.11723788    -0.39200
N340        N  0.06149301  0.46508432  0.13192176    -0.36800
N341        N  0.05365125  0.46156684  0.36921935    -0.37900
N342        N  0.42504687  0.53119448  0.40339363    -0.39500
C343        C  0.21281100  0.50331108  0.04003569    -0.04500
C344        C  0.20660552  0.52771721  0.00246634     0.09700
C345        C  0.18337587  0.51199020  0.45983362    -0.01800
C346        C  0.16763677  0.47614266  0.45602765    -0.00100
C347        C  0.15241253  0.45612613  0.99752956    -0.03700
C348        C  0.18220279  0.46989086  0.03953605     0.03300
C349        C  0.24276989  0.56389479  0.99965170     0.10200
C350        C  0.17599716  0.53347942  0.41932600     0.36000
C351        C  0.18252501  0.44869289  0.08163813     0.39500
C352        C  0.29564748  0.56537754  0.47100327    -0.04100
C353        C  0.32829694  0.59675177  0.46103800     0.03100
C354        C  0.32094430  0.62771369  0.98990764    -0.03700
C355        C  0.26521036  0.62744013  0.01680411     0.00100
C356        C  0.22666759  0.59679181  0.02059461    -0.02500
C357        C  0.31734477  0.53243738  0.45519788     0.36800
C358        C  0.24879273  0.65833590  0.04284366     0.40400
C359        C  0.37438508  0.59632054  0.42380105     0.39500
C360        C  0.17038280  0.60036483  0.04621157     0.36500
C361        C  0.25700522  0.51131127  0.07551444     0.37100
C362        C  0.17174406  0.45888262  0.40950715     0.40400
N363        N  0.41144076  0.59675868  0.39383861    -0.37700
N364        N  0.32858028  0.50432150  0.44604345    -0.39300
N365        N  0.23548334  0.34982681  0.06342434    -0.37000
N366        N  0.12455052  0.60605873  0.06467632    -0.39400
N367        N  0.16983054  0.55326628  0.38958545    -0.39200
N368        N  0.17502083  0.44446177  0.37255768    -0.36800
N369        N  0.17941274  0.43112766  0.11492125    -0.37900
N370        N  0.29365699  0.51881071  0.10265922    -0.39500
C371        C  0.41730284  0.52491195  0.21801917    -0.04500
C372        C  0.44042972  0.53870882  0.26052319     0.09700
C373        C  0.45857310  0.51800887  0.29745378    -0.01800
C374        C  0.43961639  0.48498006  0.29782749    -0.00100
C375        C  0.42226782  0.46933523  0.25271581    -0.03700
C376        C  0.42111019  0.49035911  0.21081732     0.03300
C377        C  0.47329849  0.56918477  0.25402495     0.10200
C378        C  0.50675788  0.52798683  0.32831819     0.36000
C379        C  0.41992386  0.47774627  0.16085992     0.39500
C380        C  0.44691464  0.60032502  0.26424169    -0.04100
C381        C  0.97805614  0.62892735  0.25052800     0.03100
C382        C  0.03896281  0.62557252  0.23658764    -0.03100
C383        C  0.05597922  0.59500262  0.21245085     0.00100
C384        C  0.02697709  0.56600341  0.22696661    -0.02500
C385        C  0.38942559  0.60351313  0.28906341     0.36800
C386        C  0.10796488  0.59201020  0.18020098     0.40400
C387        C  0.94629070  0.66046467  0.24952131     0.39500
C388        C  0.05265067  0.53268179  0.21707998     0.36500
C389        C  0.41065922  0.54599789  0.17654163     0.37100
C390        C  0.43172560  0.47061294  0.34576754     0.40400
N391        N  0.91513816  0.35026413  0.24908648    -0.37700
N392        N  0.34381393  0.60875163  0.30826428    -0.39300
N393        N  0.14967042  0.58774389  0.15532669    -0.37000
N394        N  0.07010066  0.50517566  0.21303160    -0.39400
N395        N  0.04512335  0.53477872  0.35394670    -0.39200
N396        N  0.42445388  0.45851901  0.38356091    -0.36800
N397        N  0.42025729  0.46739608  0.12131749    -0.37900
N398        N  0.41208631  0.56258106  0.14273946    -0.39500
C399        C  0.25691276  0.50381590  0.21173796    -0.04500
C400        C  0.26286230  0.52957289  0.24879569     0.09700
C401        C  0.28661764  0.51517354  0.29148821    -0.01800
C402        C  0.30472462  0.47972530  0.29514727    -0.00100
C403        C  0.31945557  0.45855439  0.25362457    -0.03700
C404        C  0.28978623  0.47132498  0.21157047     0.03300
C405        C  0.22596386  0.56553073  0.25112249     0.10200
C406        C  0.28978716  0.53732220  0.33283921     0.36000
C407        C  0.29320798  0.45091068  0.16776902     0.39500
C408        C  0.17279679  0.56723223  0.27957794    -0.04100
C409        C  0.14008174  0.59867217  0.28948941     0.03100
C410        C  0.14619656  0.62870268  0.25980450    -0.03700
C411        C  0.20137206  0.62822626  0.23243649     0.00100
C412        C  0.24135141  0.59831798  0.23011022    -0.02500
C413        C  0.15064818  0.53448476  0.29505307     0.36800
C414        C  0.21600644  0.65819188  0.20468283     0.40400
C415        C  0.09588032  0.59933868  0.32806090     0.39500
C416        C  0.29860574  0.60343165  0.20690294     0.36500
C417        C  0.20918888  0.50847378  0.17853926     0.37100
C418        C  0.30275649  0.46370111  0.34175420     0.40400
N419        N  0.06057215  0.60094334  0.35930095    -0.37700
N420        N  0.13884225  0.50663978  0.30471861    -0.39300
N421        N  0.22775569  0.34887135  0.18256011    -0.37000
N422        N  0.34401808  0.61199981  0.19029903    -0.39400
N423        N  0.29124653  0.55749442  0.36351696    -0.39200
N424        N  0.30062164  0.44981400  0.37847972    -0.36800
N425        N  0.29917535  0.43458120  0.13267775    -0.37900
N426        N  0.16987248  0.51269925  0.15286076    -0.39500
C427        C  0.38424803  0.43718133  0.75150917    -0.01500
C428        C  0.08558394  0.65247317  0.74874141    -0.01500
C429        C  0.08633442  0.43625311  0.50007689    -0.01500
C430        C  0.38124777  0.65238177  0.50122848    -0.01500
O431        O  0.02625817  0.65893931  0.82888240    -0.56800
C432        C  0.40457410  0.33882945  0.95319444     0.75800
O433        O  0.00302090  0.41368168  0.95087995    -0.58000
C434        C  0.06166378  0.33898349  0.79727750     0.75800
C435        C  0.40853295  0.41460881  0.79455859     0.78200
Cd436      Cd  0.48272519  0.37748180  0.87525719     1.37500
O437        O  0.43677466  0.65843590  0.91929558    -0.56800
O438        O  0.38000386  0.40003680  0.82879370    -0.55600
C439        C  0.05935124  0.41467634  0.95593446     0.78200
O440        O  0.46466156  0.41181120  0.79922375    -0.58000
O441        O  0.40135214  0.37077047  0.94809983    -0.56400
O442        O  0.06797301  0.37067025  0.80503925    -0.56400
O443        O  0.08647947  0.39864939  0.92176262    -0.55600
O444        O  0.40943432  0.66242687  0.59074814    -0.56800
C445        C  0.07127651  0.34144673  0.70124622     0.75800
O446        O  0.00544717  0.41950236  0.55886294    -0.58000
C447        C  0.39632440  0.34172510  0.54940619     0.75800
C448        C  0.41039943  0.41657875  0.70526753     0.78200
Cd449      Cd  0.48492497  0.37689484  0.62531166     1.37500
O450        O  0.05843611  0.66180737  0.65941821    -0.56800
O451        O  0.38404920  0.39468629  0.67898937    -0.55600
C452        C  0.05991726  0.41565058  0.54549322     0.78200
O453        O  0.46543337  0.41966267  0.69304735    -0.58000
O454        O  0.05140818  0.37155983  0.70510117    -0.56400
O455        O  0.41691815  0.37174033  0.54632883    -0.56400
O456        O  0.08558233  0.39339868  0.57037162    -0.55600
C457        C  0.01155065  0.51709596  0.96003333    -0.04500
C458        C  0.02577851  0.53782787  0.49885503     0.09700
C459        C  0.04680948  0.52446696  0.54160437    -0.01800
C460        C  0.05170695  0.48976812  0.54514138    -0.00100
C461        C  0.05129856  0.46927499  0.50145574    -0.03700
C462        C  0.03414753  0.48516471  0.95733958     0.03300
C463        C  0.49389445  0.56873313  0.50343267     0.10200
C464        C  0.04401548  0.54524701  0.58495956     0.36000
C465        C  0.04504325  0.47224899  0.90820290     0.39500
C466        C  0.43906444  0.56712549  0.52878163    -0.04100
C467        C  0.41044647  0.59693817  0.54007740     0.03100
C468        C  0.42764185  0.62582920  0.51274799    -0.03700
C469        C  0.48822353  0.62839498  0.99764694     0.00100
C470        C  0.52012995  0.59906876  0.98922331    -0.02500
C471        C  0.41141923  0.53440790  0.53903209     0.36800
C472        C  0.52033463  0.66001964  0.99594586     0.40400
C473        C  0.35846772  0.59626674  0.57245090     0.39500
C474        C  0.07838483  0.60074138  0.96545967     0.36500
C475        C  0.46346254  0.52548819  0.92897181     0.37100
C476        C  0.05819282  0.47648686  0.59366340     0.40400
N477        N  0.31645751  0.59469877  0.59759434    -0.37700
N478        N  0.39244634  0.50721298  0.54341195    -0.39300
N479        N  0.55165086  0.34994386  0.99469231    -0.37000
N480        N  0.12465332  0.60515227  0.94702141    -0.39400
N481        N  0.03318565  0.56311494  0.61725191    -0.39200
N482        N  0.06135373  0.46506860  0.63193272    -0.36800
N483        N  0.05372161  0.46157631  0.86922049    -0.37900
N484        N  0.42502420  0.53116654  0.90337480    -0.39500
C485        C  0.21281091  0.50330557  0.54003642    -0.04500
C486        C  0.20661267  0.52771186  0.50246834     0.09700
C487        C  0.18338313  0.51199244  0.95982892    -0.01800
C488        C  0.16765409  0.47614226  0.95602305    -0.00100
C489        C  0.15239294  0.45612584  0.49753254    -0.03700
C490        C  0.18218072  0.46989224  0.53954431     0.03300
C491        C  0.24277804  0.56388869  0.49965728     0.10200
C492        C  0.17602982  0.53347486  0.91931011     0.36000
C493        C  0.18245916  0.44871373  0.58166670     0.39500
C494        C  0.29564269  0.56538122  0.97100551    -0.04100
C495        C  0.32829857  0.59675344  0.96103674     0.03100
C496        C  0.32094805  0.62770829  0.48991734    -0.03700
C497        C  0.26521928  0.62743142  0.51681867     0.00100
C498        C  0.22668084  0.59678259  0.52060866    -0.02500
C499        C  0.31734362  0.53243856  0.95521366     0.36800
C500        C  0.24879756  0.65832796  0.54285662     0.40400
C501        C  0.37440679  0.59631167  0.92381584     0.39500
C502        C  0.17040002  0.60035420  0.54623074     0.36500
C503        C  0.25701993  0.51129642  0.57550740     0.37100
C504        C  0.17179118  0.45887666  0.90950876     0.40400
N505        N  0.41147986  0.59674106  0.89386805    -0.37700
N506        N  0.32857764  0.50431929  0.94607877    -0.39300
N507        N  0.23548218  0.34981923  0.56343424    -0.37000
N508        N  0.12456896  0.60605166  0.56469624    -0.39400
N509        N  0.16988796  0.55325692  0.88955893    -0.39200
N510        N  0.17508970  0.44445041  0.87256567    -0.36800
N511        N  0.17931479  0.43117347  0.61497467    -0.37900
N512        N  0.29368590  0.51878650  0.60264536    -0.39500
C513        C  0.41732227  0.52493172  0.71802764    -0.04500
C514        C  0.44045723  0.53871928  0.76053788     0.09700
C515        C  0.45860685  0.51800914  0.79745487    -0.01800
C516        C  0.43964875  0.48498029  0.79781910    -0.00100
C517        C  0.42227106  0.46934591  0.75270719    -0.03700
C518        C  0.42109509  0.49037800  0.71081833     0.03300
C519        C  0.47332592  0.56919745  0.75405151     0.10200
C520        C  0.50678949  0.52798271  0.82832588     0.36000
C521        C  0.41984576  0.47777037  0.66086104     0.39500
C522        C  0.44694292  0.60033725  0.76427903    -0.04100
C523        C  0.97808488  0.62894123  0.75056890     0.03100
C524        C  0.03898116  0.62558999  0.73660606    -0.03100
C525        C  0.05599095  0.59502051  0.71245991     0.00100
C526        C  0.02699645  0.56601949  0.72698165    -0.02500
C527        C  0.38945113  0.60352649  0.78909464     0.36800
C528        C  0.10797704  0.59202973  0.68021107     0.40400
C529        C  0.94631509  0.66047677  0.74956422     0.39500
C530        C  0.05266215  0.53269902  0.71707375     0.36500
C531        C  0.41070303  0.54602672  0.67655503     0.37100
C532        C  0.43178638  0.47060076  0.84575325     0.40400
N533        N  0.91515407  0.35027230  0.74912534    -0.37700
N534        N  0.34383957  0.60877542  0.80828930    -0.39300
N535        N  0.14968767  0.58776277  0.65534459    -0.37000
N536        N  0.07010349  0.50519232  0.71300256    -0.39400
N537        N  0.04515291  0.53476806  0.85396128    -0.39200
N538        N  0.42453031  0.45849468  0.88353999    -0.36800
N539        N  0.42013368  0.46741979  0.62131890    -0.37900
N540        N  0.41216118  0.56262065  0.64276342    -0.39500
C541        C  0.25691605  0.50382369  0.71172906    -0.04500
C542        C  0.26288521  0.52958597  0.74877888     0.09700
C543        C  0.28664762  0.51519132  0.79147021    -0.01800
C544        C  0.30474693  0.47974206  0.79513744    -0.00100
C545        C  0.31945848  0.45856385  0.75361926    -0.03700
C546        C  0.28977500  0.47132717  0.71156767     0.03300
C547        C  0.22598932  0.56554538  0.75110862     0.10200
C548        C  0.28983028  0.53734003  0.83282038     0.36000
C549        C  0.29315923  0.45089309  0.66778280     0.39500
C550        C  0.17281902  0.56724257  0.77956028    -0.04100
C551        C  0.14010615  0.59868155  0.78948073     0.03100
C552        C  0.14622219  0.62871691  0.75980648    -0.03700
C553        C  0.20140060  0.62824544  0.73244233     0.00100
C554        C  0.24138316  0.59833692  0.73010966    -0.02500
C555        C  0.15066643  0.53449316  0.79502499     0.36800
C556        C  0.21603998  0.65821742  0.70470359     0.40400
C557        C  0.09588707  0.59933482  0.82803970     0.39500
C558        C  0.29864070  0.60345577  0.70690934     0.36500
C559        C  0.20919307  0.50848458  0.67852922     0.37100
C560        C  0.30280366  0.46372817  0.84175081     0.40400
N561        N  0.06055666  0.60092834  0.85926458    -0.37700
N562        N  0.13885707  0.50664751  0.80468280    -0.39300
N563        N  0.22779030  0.34890281  0.68259485    -0.37000
N564        N  0.34405220  0.61202750  0.69030792    -0.39400
N565        N  0.29130296  0.55750359  0.86350861    -0.39200
N566        N  0.30068532  0.44984917  0.87848223    -0.36800
N567        N  0.29909749  0.43454308  0.63270806    -0.37900
N568        N  0.16987857  0.51271194  0.65284901    -0.39500
C569        C  0.38424809  0.77050451  0.25151948    -0.01500
C570        C  0.08555557  0.98579048  0.24873953    -0.01500
C571        C  0.08635306  0.76958920  0.00007756    -0.01500
C572        C  0.38124003  0.98572235  0.00122410    -0.01500
O573        O  0.02617300  0.99225799  0.32885439    -0.56800
C574        C  0.40457756  0.67215491  0.45319718     0.75800
O575        O  0.00300677  0.74700414  0.45088405    -0.58000
C576        C  0.06163161  0.67229550  0.29727449     0.75800
C577        C  0.40853477  0.74793781  0.29457157     0.78200
Cd578      Cd  0.48271729  0.71080497  0.37525978     1.37500
O579        O  0.43681273  0.99176277  0.41932454    -0.56800
O580        O  0.38000249  0.73335032  0.32879241    -0.55600
C581        C  0.05933733  0.74800462  0.45593064     0.78200
O582        O  0.46466430  0.74515363  0.29925180    -0.58000
O583        O  0.40131326  0.70409074  0.44808394    -0.56400
O584        O  0.06800588  0.70397235  0.30507348    -0.56400
O585        O  0.08646677  0.73198208  0.42175884    -0.55600
O586        O  0.40943095  0.99576479  0.09074584    -0.56800
C587        C  0.07126632  0.67477064  0.20124613     0.75800
O588        O  0.00547442  0.75285816  0.05888864    -0.58000
C589        C  0.39632756  0.67506402  0.04940202     0.75800
C590        C  0.41040716  0.74990280  0.20528249     0.78200
Cd591      Cd  0.48493292  0.71022930  0.12531022     1.37500
O592        O  0.05842411  0.99513522  0.15941751    -0.56800
O593        O  0.38404489  0.72803738  0.17896407    -0.55600
C594        C  0.05993561  0.74898879  0.04549697     0.78200
O595        O  0.46545455  0.75296512  0.19309308    -0.58000
O596        O  0.05140287  0.70488437  0.20510631    -0.56400
O597        O  0.41692698  0.70507913  0.04632487    -0.56400
O598        O  0.08558513  0.72671992  0.07035387    -0.55600
C599        C  0.01157691  0.85043924  0.46003824    -0.04500
C600        C  0.02572896  0.87115508  0.99885300     0.09700
C601        C  0.04677664  0.85780543  0.04160570    -0.01800
C602        C  0.05173570  0.82310916  0.04513925    -0.00100
C603        C  0.05132545  0.80261408  0.00145521    -0.03700
C604        C  0.03413754  0.81849858  0.45734271     0.03300
C605        C  0.49384873  0.90206181  0.00341733     0.10200
C606        C  0.04396252  0.87858821  0.08495819     0.36000
C607        C  0.04499848  0.80557755  0.40820419     0.39500
C608        C  0.43902766  0.90046287  0.02877705    -0.04100
C609        C  0.41043061  0.93028030  0.04008145     0.03100
C610        C  0.42763311  0.95916896  0.01274521    -0.03700
C611        C  0.48823220  0.96172905  0.49767607     0.00100
C612        C  0.52015474  0.93240878  0.48925461    -0.02500
C613        C  0.41138332  0.86774764  0.03904996     0.36800
C614        C  0.52033120  0.99335767  0.49597856     0.40400
C615        C  0.35845093  0.92961718  0.07245371     0.39500
C616        C  0.07841025  0.93409111  0.46549353     0.36500
C617        C  0.46348762  0.85884197  0.42898537     0.37100
C618        C  0.05829273  0.80983390  0.09365684     0.40400
N619        N  0.31643354  0.92805508  0.09758885    -0.37700
N620        N  0.39241763  0.84055296  0.04345740    -0.39300
N621        N  0.55164903  0.68328347  0.49471515    -0.37000
N622        N  0.12467797  0.93851238  0.44705799    -0.39400
N623        N  0.03312035  0.89646123  0.11724208    -0.39200
N624        N  0.06150975  0.79841609  0.13192226    -0.36800
N625        N  0.05365195  0.79490192  0.36922033    -0.37900
N626        N  0.42504486  0.86452674  0.40339599    -0.39500
C627        C  0.21281125  0.83664262  0.04003615    -0.04500
C628        C  0.20660412  0.86104920  0.00246645     0.09700
C629        C  0.18337498  0.84532284  0.45983451    -0.01800
C630        C  0.16763740  0.80947522  0.45602583    -0.00100
C631        C  0.15241418  0.78945788  0.99752744    -0.03700
C632        C  0.18220576  0.80322174  0.03953517     0.03300
C633        C  0.24276758  0.89722727  0.99965323     0.10200
C634        C  0.17599401  0.86681230  0.41932752     0.36000
C635        C  0.18253298  0.78202156  0.08163474     0.39500
C636        C  0.29564497  0.89871000  0.47100486    -0.04100
C637        C  0.32829456  0.93008420  0.46103952     0.03100
C638        C  0.32094173  0.96104595  0.98990902    -0.03700
C639        C  0.26520664  0.96077194  0.01680556     0.00100
C640        C  0.22666587  0.93012355  0.02059566    -0.02500
C641        C  0.31734272  0.86576985  0.45519872     0.36800
C642        C  0.24878908  0.99166795  0.04284506     0.40400
C643        C  0.37438358  0.92965316  0.42380263     0.39500
C644        C  0.17038146  0.93369586  0.04621402     0.36500
C645        C  0.25700349  0.84464406  0.07551529     0.37100
C646        C  0.17174462  0.79221545  0.40950549     0.40400
N647        N  0.41143885  0.93009139  0.39384044    -0.37700
N648        N  0.32857795  0.83765364  0.44604398    -0.39300
N649        N  0.23548365  0.68316099  0.06342195    -0.37000
N650        N  0.12454857  0.93938919  0.06467981    -0.39400
N651        N  0.16982602  0.88659993  0.38958712    -0.39200
N652        N  0.17502138  0.77779552  0.37255649    -0.36800
N653        N  0.17942514  0.76445418  0.11491531    -0.37900
N654        N  0.29365343  0.85214501  0.10266074    -0.39500
C655        C  0.41729849  0.85824485  0.21802064    -0.04500
C656        C  0.44042486  0.87204282  0.26052733     0.09700
C657        C  0.45856872  0.85134206  0.29745588    -0.01800
C658        C  0.43961653  0.81831338  0.29782935    -0.00100
C659        C  0.42227029  0.80266831  0.25271596    -0.03700
C660        C  0.42111338  0.82369249  0.21081909     0.03300
C661        C  0.47329343  0.90251858  0.25402738     0.10200
C662        C  0.50675383  0.86132113  0.32832002     0.36000
C663        C  0.41993531  0.81108061  0.16086107     0.39500
C664        C  0.44690912  0.93365868  0.26424553    -0.04100
C665        C  0.97805354  0.96226088  0.25053266     0.03100
C666        C  0.03895727  0.95890652  0.23659253    -0.03100
C667        C  0.05597516  0.92833614  0.21245414     0.00100
C668        C  0.02697260  0.89933624  0.22696978    -0.02500
C669        C  0.38941986  0.93684671  0.28906633     0.36800
C670        C  0.10795974  0.92534314  0.18020416     0.40400
C671        C  0.94628764  0.99379832  0.24952766     0.39500
C672        C  0.05264552  0.86601534  0.21708286     0.36500
C673        C  0.41065333  0.87933149  0.17654463     0.37100
C674        C  0.43172598  0.80394510  0.34576867     0.40400
N675        N  0.91513909  0.68359721  0.24908360    -0.37700
N676        N  0.34380825  0.94208501  0.30826694    -0.39300
N677        N  0.14966465  0.92107634  0.15533065    -0.37000
N678        N  0.07009591  0.83850962  0.21303348    -0.39400
N679        N  0.04512066  0.86811333  0.35394894    -0.39200
N680        N  0.42445519  0.79185072  0.38356141    -0.36800
N681        N  0.42027482  0.80073096  0.12131747    -0.37900
N682        N  0.41207958  0.89591428  0.14274306    -0.39500
C683        C  0.25691288  0.83715011  0.21173782    -0.04500
C684        C  0.26286154  0.86290640  0.24879701     0.09700
C685        C  0.28661628  0.84850647  0.29148837    -0.01800
C686        C  0.30472472  0.81305896  0.29514784    -0.00100
C687        C  0.31945739  0.79188816  0.25362237    -0.03700
C688        C  0.28978932  0.80466004  0.21157036     0.03300
C689        C  0.22596147  0.89886403  0.25112441     0.10200
C690        C  0.28978415  0.87065452  0.33284060     0.36000
C691        C  0.29321593  0.78424849  0.16776594     0.39500
C692        C  0.17279536  0.90056587  0.27957942    -0.04100
C693        C  0.14008007  0.93200612  0.28949067     0.03100
C694        C  0.14619327  0.96203565  0.25980685    -0.03700
C695        C  0.20136888  0.96156001  0.23243734     0.00100
C696        C  0.24134921  0.93165194  0.23011108    -0.02500
C697        C  0.15064630  0.86781826  0.29505456     0.36800
C698        C  0.21600255  0.99152543  0.20468364     0.40400
C699        C  0.09588013  0.93267240  0.32806384     0.39500
C700        C  0.29860306  0.93676606  0.20690427     0.36500
C701        C  0.20918777  0.84180703  0.17854043     0.37100
C702        C  0.30275722  0.79703336  0.34175351     0.40400
N703        N  0.06057319  0.93427734  0.35930526    -0.37700
N704        N  0.13883959  0.83997345  0.30472016    -0.39300
N705        N  0.22775577  0.68220358  0.18255634    -0.37000
N706        N  0.34401520  0.94533496  0.19030099    -0.39400
N707        N  0.29124232  0.89082671  0.36351910    -0.39200
N708        N  0.30062270  0.78314586  0.37847818    -0.36800
N709        N  0.29918742  0.76792151  0.13267191    -0.37900
N710        N  0.16987073  0.84603122  0.15286280    -0.39500
C711        C  0.38425045  0.77051480  0.75150819    -0.01500
C712        C  0.08558031  0.98580709  0.74874344    -0.01500
C713        C  0.08633499  0.76958578  0.50007639    -0.01500
C714        C  0.38124361  0.98571435  0.50123066    -0.01500
O715        O  0.02625874  0.99227269  0.82888645    -0.56800
C716        C  0.40457538  0.67216422  0.95319137     0.75800
O717        O  0.00302174  0.74701494  0.95087937    -0.58000
C718        C  0.06166421  0.67231664  0.79727643     0.75800
C719        C  0.40853386  0.74794204  0.79455686     0.78200
Cd720      Cd  0.48272641  0.71081513  0.87525557     1.37500
O721        O  0.43677441  0.99176838  0.91929893    -0.56800
O722        O  0.38000505  0.73336981  0.82879260    -0.55600
C723        C  0.05935250  0.74800889  0.95593187     0.78200
O724        O  0.46466293  0.74514420  0.79922257    -0.58000
O725        O  0.40135342  0.70410395  0.94809831    -0.56400
O726        O  0.06797531  0.70400318  0.80503811    -0.56400
O727        O  0.08647987  0.73198318  0.92176168    -0.55600
O728        O  0.40943005  0.99575985  0.59075089    -0.56800
C729        C  0.07127737  0.67478073  0.70124396     0.75800
O730        O  0.00544858  0.75283658  0.55886412    -0.58000
C731        C  0.39632548  0.67505782  0.54940489     0.75800
C732        C  0.41040045  0.74991330  0.70526806     0.78200
Cd733      Cd  0.48492583  0.71022816  0.62531028     1.37500
O734        O  0.05842997  0.99513985  0.65942120    -0.56800
O735        O  0.38404941  0.72802068  0.67898643    -0.55600
C736        C  0.05992079  0.74898317  0.54549199     0.78200
O737        O  0.46543559  0.75299484  0.69304757    -0.58000
O738        O  0.05140933  0.70489302  0.70509967    -0.56400
O739        O  0.41692086  0.70507406  0.54632649    -0.56400
O740        O  0.08558266  0.72673045  0.57036924    -0.55600
C741        C  0.01154765  0.85042946  0.96003735    -0.04500
C742        C  0.02577354  0.87115967  0.49885944     0.09700
C743        C  0.04680586  0.85779972  0.54160790    -0.01800
C744        C  0.05171053  0.82310019  0.54514284    -0.00100
C745        C  0.05130113  0.80260831  0.50145645    -0.03700
C746        C  0.03414806  0.81849732  0.95734198     0.03300
C747        C  0.49388931  0.90206635  0.50343678     0.10200
C748        C  0.04400991  0.87857845  0.58496386     0.36000
C749        C  0.04504380  0.80558345  0.90820410     0.39500
C750        C  0.43905895  0.90045717  0.52878583    -0.04100
C751        C  0.41044164  0.93027093  0.54008053     0.03100
C752        C  0.42763891  0.95916169  0.51275122    -0.03700
C753        C  0.48821964  0.96172751  0.99765171     0.00100
C754        C  0.52012614  0.93240130  0.98922815    -0.02500
C755        C  0.41141361  0.86773985  0.53903539     0.36800
C756        C  0.52033130  0.99335186  0.99595006     0.40400
C757        C  0.35846225  0.92959965  0.57245379     0.39500
C758        C  0.07838091  0.93407329  0.96546459     0.36500
C759        C  0.46346025  0.85882050  0.92897472     0.37100
C760        C  0.05820397  0.80981908  0.59366437     0.40400
N761        N  0.31645164  0.92803215  0.59759718    -0.37700
N762        N  0.39244107  0.84054547  0.54341448    -0.39300
N763        N  0.55165295  0.68327697  0.99468901    -0.37000
N764        N  0.12464939  0.93848410  0.94702638    -0.39400
N765        N  0.03317945  0.89644585  0.61725638    -0.39200
N766        N  0.06137087  0.79840051  0.63193275    -0.36800
N767        N  0.05372252  0.79491147  0.86922167    -0.37900
N768        N  0.42502201  0.86449878  0.90337728    -0.39500
C769        C  0.21281171  0.83663700  0.54003764    -0.04500
C770        C  0.20661071  0.86104403  0.50246828     0.09700
C771        C  0.18338188  0.84532484  0.95982926    -0.01800
C772        C  0.16765450  0.80947443  0.95602304    -0.00100
C773        C  0.15239523  0.78945756  0.49753298    -0.03700
C774        C  0.18218305  0.80322331  0.53954131     0.03300
C775        C  0.24277760  0.89722056  0.49965756     0.10200
C776        C  0.17602694  0.86680784  0.91931135     0.36000
C777        C  0.18246741  0.78204286  0.58166263     0.39500
C778        C  0.29564137  0.89871324  0.97100644    -0.04100
C779        C  0.32829619  0.93008587  0.96103855     0.03100
C780        C  0.32094487  0.96104060  0.48991888    -0.03700
C781        C  0.26521714  0.96076381  0.51681949     0.00100
C782        C  0.22667665  0.93011452  0.52061079    -0.02500
C783        C  0.31734191  0.86577061  0.95521447     0.36800
C784        C  0.24879372  0.99165969  0.54285798     0.40400
C785        C  0.37440463  0.92964423  0.92381786     0.39500
C786        C  0.17039755  0.93368539  0.54623346     0.36500
C787        C  0.25701856  0.84462951  0.57550894     0.37100
C788        C  0.17179196  0.79220970  0.90950772     0.40400
N789        N  0.41147839  0.93007359  0.89386983    -0.37700
N790        N  0.32857506  0.83765164  0.94607941    -0.39300
N791        N  0.23548268  0.68315336  0.56343199    -0.37000
N792        N  0.12456816  0.93938191  0.56469917    -0.39400
N793        N  0.16988373  0.88659016  0.88956101    -0.39200
N794        N  0.17509041  0.77778381  0.87256382    -0.36800
N795        N  0.17932766  0.76449952  0.61496918    -0.37900
N796        N  0.29368177  0.85212099  0.60264668    -0.39500
C797        C  0.41731831  0.85826513  0.71803090    -0.04500
C798        C  0.44045095  0.87205261  0.76054083     0.09700
C799        C  0.45860303  0.85134242  0.79745797    -0.01800
C800        C  0.43964917  0.81831402  0.79782054    -0.00100
C801        C  0.42227335  0.80267808  0.75270798    -0.03700
C802        C  0.42109860  0.82371173  0.71081902     0.03300
C803        C  0.47332103  0.90253161  0.75405407     0.10200
C804        C  0.50678581  0.86131694  0.82832808     0.36000
C805        C  0.41985783  0.81110452  0.66086182     0.39500
C806        C  0.44693670  0.93367051  0.76428324    -0.04100
C807        C  0.97807991  0.96227495  0.75057442     0.03100
C808        C  0.03897701  0.95892304  0.73661038    -0.03100
C809        C  0.05598582  0.92835394  0.71246372     0.00100
C810        C  0.02699077  0.89935322  0.72698484    -0.02500
C811        C  0.38944484  0.93686002  0.78909787     0.36800
C812        C  0.10797121  0.92536283  0.68021462     0.40400
C813        C  0.94631159  0.99381085  0.74957097     0.39500
C814        C  0.05265667  0.86603253  0.71707673     0.36500
C815        C  0.41069650  0.87935988  0.67655829     0.37100
C816        C  0.43178681  0.80393283  0.84575411     0.40400
N817        N  0.91515460  0.68360573  0.74912247    -0.37700
N818        N  0.34383394  0.94210862  0.80829190    -0.39300
N819        N  0.14968190  0.92109515  0.65534823    -0.37000
N820        N  0.07009828  0.83852603  0.71300431    -0.39400
N821        N  0.04514962  0.86810265  0.85396323    -0.39200
N822        N  0.42453163  0.79182625  0.88354104    -0.36800
N823        N  0.42015194  0.80075481  0.62131933    -0.37900
N824        N  0.41215361  0.89595387  0.64276680    -0.39500
C825        C  0.25691627  0.83715821  0.71172910    -0.04500
C826        C  0.26288348  0.86292007  0.74877944     0.09700
C827        C  0.28664682  0.84852366  0.79147134    -0.01800
C828        C  0.30474708  0.81307577  0.79513753    -0.00100
C829        C  0.31945984  0.79189769  0.75361710    -0.03700
C830        C  0.28977895  0.80466155  0.71156713     0.03300
C831        C  0.22598758  0.89887840  0.75111009     0.10200
C832        C  0.28982734  0.87067254  0.83282165     0.36000
C833        C  0.29316756  0.78423103  0.66777922     0.39500
C834        C  0.17281733  0.90057608  0.77956175    -0.04100
C835        C  0.14010388  0.93201524  0.78948237     0.03100
C836        C  0.14621940  0.96204972  0.75980862    -0.03700
C837        C  0.20139703  0.96157935  0.73244311     0.00100
C838        C  0.24138066  0.93167064  0.73011066    -0.02500
C839        C  0.15066439  0.86782669  0.79502640     0.36800
C840        C  0.21603575  0.99155092  0.70470416     0.40400
C841        C  0.09588689  0.93266839  0.82804267     0.39500
C842        C  0.29863813  0.93679020  0.70691071     0.36500
C843        C  0.20919186  0.84181753  0.67853067     0.37100
C844        C  0.30280472  0.79706054  0.84174990     0.40400
N845        N  0.06055811  0.93426230  0.85926858    -0.37700
N846        N  0.13885434  0.83998113  0.80468432    -0.39300
N847        N  0.22779028  0.68223516  0.68259091    -0.37000
N848        N  0.34404935  0.94536271  0.69030990    -0.39400
N849        N  0.29129887  0.89083570  0.86351092    -0.39200
N850        N  0.30068628  0.78318107  0.87848087    -0.36800
N851        N  0.29911014  0.76788380  0.63270213    -0.37900
N852        N  0.16987661  0.84604362  0.65285125    -0.39500
C853        C  0.88424519  0.10383843  0.25152330    -0.01500
C854        C  0.58555811  0.31912337  0.24873930    -0.01500
C855        C  0.58635041  0.10292257  0.00007954    -0.01500
C856        C  0.88124241  0.31905541  0.00122346    -0.01500
O857        O  0.52617230  0.32559117  0.32885276    -0.56800
C858        C  0.90457418  0.00548672  0.45320077     0.75800
O859        O  0.50300394  0.08033712  0.45088675    -0.58000
C860        C  0.56162878  0.00562816  0.29727681     0.75800
C861        C  0.90853215  0.08127177  0.29457430     0.78200
Cd862      Cd  0.98271461  0.04413818  0.37526294     1.37500
O863        O  0.93681282  0.32509666  0.41932368    -0.56800
O864        O  0.87999957  0.06668422  0.32879623    -0.55600
C865        C  0.55933494  0.08133839  0.45593531     0.78200
O866        O  0.96466148  0.07848707  0.29925505    -0.58000
O867        O  0.90130815  0.03742307  0.44808514    -0.56400
O868        O  0.56800018  0.03730693  0.30507422    -0.56400
O869        O  0.58646451  0.06531482  0.42176178    -0.55600
O870        O  0.90943502  0.32909799  0.09074575    -0.56800
C871        C  0.57126160  0.00810421  0.20124815     0.75800
O872        O  0.50547022  0.08619099  0.05889057    -0.58000
C873        C  0.89632277  0.00839646  0.04940274     0.75800
C874        C  0.91040393  0.08323505  0.20528420     0.78200
Cd875      Cd  0.98492870  0.04356234  0.12531272     1.37500
O876        O  0.55842849  0.32846921  0.15941672    -0.56800
O877        O  0.88404210  0.06136943  0.17896931    -0.55600
C878        C  0.55993244  0.08232286  0.04549877     0.78200
O879        O  0.96545031  0.08629939  0.19309429    -0.58000
O880        O  0.55140051  0.03821739  0.20510795    -0.56400
O881        O  0.91692301  0.03841195  0.04632711    -0.56400
O882        O  0.58558178  0.06005348  0.07035738    -0.55600
C883        C  0.51157948  0.18377316  0.46003834    -0.04500
C884        C  0.52573294  0.20448906  0.99885268     0.09700
C885        C  0.54677836  0.19113934  0.04160470    -0.01800
C886        C  0.55173228  0.15644303  0.04514049    -0.00100
C887        C  0.55132238  0.13594718  0.00145779    -0.03700
C888        C  0.53413684  0.15183165  0.45734379     0.03300
C889        C  0.99385175  0.23539675  0.00341664     0.10200
C890        C  0.54396570  0.21192260  0.08495764     0.36000
C891        C  0.54499673  0.13890976  0.40820521     0.39500
C892        C  0.93903147  0.23379625  0.02877600    -0.04100
C893        C  0.91043469  0.26361435  0.04008047     0.03100
C894        C  0.92763392  0.29250329  0.01274482    -0.03700
C895        C  0.98823527  0.29506303  0.49767472     0.00100
C896        C  0.02015791  0.26574287  0.48925346    -0.02500
C897        C  0.91138670  0.20108140  0.03904914     0.36800
C898        C  0.02033334  0.32669179  0.49597745     0.40400
C899        C  0.85845492  0.26295068  0.07245320     0.39500
C900        C  0.57841433  0.26742569  0.46549234     0.36500
C901        C  0.96348955  0.19217633  0.42898546     0.37100
C902        C  0.55828365  0.14316775  0.09365847     0.40400
N903        N  0.81643710  0.26138772  0.09758878    -0.37700
N904        N  0.89242133  0.17388714  0.04345630    -0.39300
N905        N  0.05164458  0.01661632  0.49471945    -0.37000
N906        N  0.62468111  0.27184697  0.44705705    -0.39400
N907        N  0.53312392  0.22979605  0.11724157    -0.39200
N908        N  0.56149639  0.13175037  0.13192449    -0.36800
N909        N  0.55364983  0.12823353  0.36922197    -0.37900
N910        N  0.92504681  0.19786123  0.40339638    -0.39500
C911        C  0.71281104  0.16997608  0.04003856    -0.04500
C912        C  0.70660489  0.19438279  0.00246816     0.09700
C913        C  0.68337519  0.17865653  0.45983527    -0.01800
C914        C  0.66763562  0.14280825  0.45602961    -0.00100
C915        C  0.65241101  0.12279148  0.99753127    -0.03700
C916        C  0.68220269  0.13655664  0.03953724     0.03300
C917        C  0.74276998  0.23056118  0.99965421     0.10200
C918        C  0.67599544  0.20014571  0.41932857     0.36000
C919        C  0.68252558  0.11535782  0.08163919     0.39500
C920        C  0.79564735  0.23204397  0.47100507    -0.04100
C921        C  0.82829572  0.26341761  0.46104021     0.03100
C922        C  0.82094418  0.29438019  0.98990969    -0.03700
C923        C  0.76520892  0.29410587  0.01680651     0.00100
C924        C  0.72666751  0.26345697  0.02059690    -0.02500
C925        C  0.81734371  0.19910355  0.45519914     0.36800
C926        C  0.74879207  0.32500188  0.04284596     0.40400
C927        C  0.87438436  0.26298683  0.42380304     0.39500
C928        C  0.67038321  0.26703029  0.04621456     0.36500
C929        C  0.75700499  0.17797673  0.07551641     0.37100
C930        C  0.67174262  0.12554866  0.40950895     0.40400
N931        N  0.91143981  0.26342534  0.39384025    -0.37700
N932        N  0.82857920  0.17098760  0.44604389    -0.39300
N933        N  0.73547996  0.01649273  0.06342367    -0.37000
N934        N  0.62455037  0.27272391  0.06468001    -0.39400
N935        N  0.66982826  0.21993263  0.38958873    -0.39200
N936        N  0.67501924  0.11112799  0.37255965    -0.36800
N937        N  0.67941381  0.09779153  0.11492182    -0.37900
N938        N  0.79365629  0.18547596  0.10266122    -0.39500
C939        C  0.91730160  0.19157898  0.21802185    -0.04500
C940        C  0.94042903  0.20537522  0.26052732     0.09700
C941        C  0.95857244  0.18467556  0.29745629    -0.01800
C942        C  0.93961600  0.15164650  0.29783054    -0.00100
C943        C  0.92226717  0.13600164  0.25271831    -0.03700
C944        C  0.92110995  0.15702571  0.21081994     0.03300
C945        C  0.97329857  0.23585142  0.25402780     0.10200
C946        C  0.00675721  0.19465327  0.32832097     0.36000
C947        C  0.91992460  0.14441343  0.16086288     0.39500
C948        C  0.94691301  0.26699194  0.26424480    -0.04100
C949        C  0.47805643  0.29559345  0.25053019     0.03100
C950        C  0.53896038  0.29224000  0.23659072    -0.03100
C951        C  0.55597898  0.26166883  0.21245321     0.00100
C952        C  0.52697704  0.23266932  0.22696989    -0.02500
C953        C  0.88942390  0.27017988  0.28906562     0.36800
C954        C  0.60796419  0.25867639  0.18020368     0.40400
C955        C  0.44629018  0.32713099  0.24952372     0.39500
C956        C  0.55264981  0.19934814  0.21708337     0.36500
C957        C  0.91065755  0.21266495  0.17654481     0.37100
C958        C  0.93172437  0.13727940  0.34577061     0.40400
N959        N  0.41513561  0.01693118  0.24909131    -0.37700
N960        N  0.84381290  0.27541838  0.30826612    -0.39300
N961        N  0.64966931  0.25441000  0.15533025    -0.37000
N962        N  0.57009995  0.17184228  0.21303482    -0.39400
N963        N  0.54512351  0.20144561  0.35394989    -0.39200
N964        N  0.92445250  0.12518566  0.38356342    -0.36800
N965        N  0.92025848  0.13406351  0.12131995    -0.37900
N966        N  0.91208401  0.22924781  0.14274337    -0.39500
C967        C  0.75691157  0.17048348  0.21173992    -0.04500
C968        C  0.76286214  0.19623977  0.24879816     0.09700
C969        C  0.78661646  0.18184134  0.29149021    -0.01800
C970        C  0.80472390  0.14639223  0.29515020    -0.00100
C971        C  0.81945451  0.12522158  0.25362567    -0.03700
C972        C  0.78978603  0.13799230  0.21157336     0.03300
C973        C  0.72596257  0.23219796  0.25112527     0.10200
C974        C  0.78978559  0.20398927  0.33284170     0.36000
C975        C  0.79320767  0.11757839  0.16777127     0.39500
C976        C  0.67279605  0.23389935  0.27958060    -0.04100
C977        C  0.64008160  0.26533955  0.28949136     0.03100
C978        C  0.64619526  0.29536960  0.25980709    -0.03700
C979        C  0.70137083  0.29489342  0.23243907     0.00100
C980        C  0.74135113  0.26498540  0.23011213    -0.02500
C981        C  0.65064785  0.20115190  0.29505589     0.36800
C982        C  0.71600606  0.32485925  0.20468594     0.40400
C983        C  0.59588033  0.26600565  0.32806386     0.39500
C984        C  0.79860481  0.27009910  0.20690496     0.36500
C985        C  0.70918777  0.17514106  0.17854135     0.37100
C986        C  0.80275527  0.13036798  0.34175668     0.40400
N987        N  0.56057238  0.26761037  0.35930454    -0.37700
N988        N  0.63884216  0.17330697  0.30472147    -0.39300
N989        N  0.72775090  0.01553708  0.18255701    -0.37000
N990        N  0.84401665  0.27866741  0.19030121    -0.39400
N991        N  0.79124375  0.22416172  0.36351927    -0.39200
N992        N  0.80061993  0.11648058  0.37848096    -0.36800
N993        N  0.79917551  0.10124875  0.13267953    -0.37900
N994        N  0.66987217  0.17936629  0.15286309    -0.39500
C995        C  0.88424696  0.10384827  0.75151165    -0.01500
C996        C  0.58558376  0.31914012  0.74874292    -0.01500
C997        C  0.58633247  0.10291882  0.50007864    -0.01500
C998        C  0.88124617  0.31904791  0.50123105    -0.01500
O999        O  0.52625807  0.32560607  0.82888455    -0.56800
C1000       C  0.90457245  0.00549651  0.95319366     0.75800
O1001       O  0.50301917  0.08034808  0.95088203    -0.58000
C1002       C  0.56166198  0.00565112  0.79727933     0.75800
C1003       C  0.90853130  0.08127572  0.79456046     0.78200
Cd1004     Cd  0.98272382  0.04414836  0.87525866     1.37500
O1005       O  0.93677471  0.32510230  0.91929783    -0.56800
O1006       O  0.88000242  0.06670381  0.82879614    -0.55600
C1007       C  0.55934979  0.08134252  0.95593607     0.78200
O1008       O  0.96466010  0.07847775  0.79922550    -0.58000
O1009       O  0.90134855  0.03743602  0.94809964    -0.56400
O1010       O  0.56796949  0.03733705  0.80503831    -0.56400
O1011       O  0.58647766  0.06531600  0.92176456    -0.55600
O1012       O  0.90943398  0.32909309  0.59075043    -0.56800
C1013       C  0.57127363  0.00811272  0.70124684     0.75800
O1014       O  0.50544479  0.08616936  0.55886564    -0.58000
C1015       C  0.89632165  0.00839134  0.54940707     0.75800
C1016       C  0.91039887  0.08324608  0.70526997     0.78200
Cd1017     Cd  0.98492151  0.04356125  0.62531282     1.37500
O1018       O  0.55843444  0.32847378  0.65941997    -0.56800
O1019       O  0.88404643  0.06135257  0.67899170    -0.55600
C1020       C  0.55991669  0.08231671  0.54549501     0.78200
O1021       O  0.96543074  0.08632918  0.69304878    -0.58000
O1022       O  0.55140616  0.03822652  0.70510132    -0.56400
O1023       O  0.91691610  0.03840660  0.54632861    -0.56400
O1024       O  0.58557928  0.06006428  0.57037274    -0.55600
C1025       C  0.51154980  0.18376346  0.96003751    -0.04500
C1026       C  0.52577710  0.20449398  0.49885808     0.09700
C1027       C  0.54680840  0.19113352  0.54160838    -0.01800
C1028       C  0.55170701  0.15643372  0.54514358    -0.00100
C1029       C  0.55129779  0.13594198  0.50145825    -0.03700
C1030       C  0.53414675  0.15183068  0.95734162     0.03300
C1031       C  0.99389316  0.23540044  0.50343597     0.10200
C1032       C  0.54401339  0.21191301  0.58496341     0.36000
C1033       C  0.54504203  0.13891557  0.90820507     0.39500
C1034       C  0.93906276  0.23379156  0.52878481    -0.04100
C1035       C  0.91044513  0.26360390  0.54008042     0.03100
C1036       C  0.92764153  0.29249622  0.51274993    -0.03700
C1037       C  0.98822369  0.29506116  0.99765013     0.00100
C1038       C  0.02012903  0.26573543  0.98922728    -0.02500
C1039       C  0.91141745  0.20107399  0.53903451     0.36800
C1040       C  0.02033340  0.32668627  0.99594919     0.40400
C1041       C  0.85846607  0.26293311  0.57245358     0.39500
C1042       C  0.57838452  0.26740775  0.96546362     0.36500
C1043       C  0.96346239  0.19215476  0.92897493     0.37100
C1044       C  0.55819423  0.14315311  0.59366606     0.40400
N1045       N  0.81645583  0.26136488  0.59759700    -0.37700
N1046       N  0.89244471  0.17387924  0.54341340    -0.39300
N1047       N  0.05164836  0.01660959  0.99469275    -0.37000
N1048       N  0.62465242  0.27181868  0.94702569    -0.39400
N1049       N  0.53318362  0.22978039  0.61725545    -0.39200
N1050       N  0.56135689  0.13173473  0.63193524    -0.36800
N1051       N  0.55371996  0.12824312  0.86922355    -0.37900
N1052       N  0.92502344  0.19783338  0.90337737    -0.39500
C1053       C  0.71281082  0.16997093  0.54003873    -0.04500
C1054       C  0.70661236  0.19437741  0.50247098     0.09700
C1055       C  0.68338200  0.17865795  0.95983068    -0.01800
C1056       C  0.66765321  0.14280861  0.95602573    -0.00100
C1057       C  0.65239231  0.12279161  0.49753510    -0.03700
C1058       C  0.68218043  0.13655775  0.53954549     0.03300
C1059       C  0.74277795  0.23055413  0.49965934     0.10200
C1060       C  0.67602797  0.20014111  0.91931308     0.36000
C1061       C  0.68245968  0.11537874  0.58166782     0.39500
C1062       C  0.79564189  0.23204736  0.97100763    -0.04100
C1063       C  0.82829741  0.26341895  0.96103876     0.03100
C1064       C  0.82094686  0.29437413  0.48991928    -0.03700
C1065       C  0.76521964  0.29409779  0.51682071     0.00100
C1066       C  0.72667944  0.26344800  0.52061159    -0.02500
C1067       C  0.81734272  0.19910458  0.95521481     0.36800
C1068       C  0.74879655  0.32499372  0.54285898     0.40400
C1069       C  0.87440579  0.26297810  0.92381797     0.39500
C1070       C  0.67039976  0.26701968  0.54623382     0.36500
C1071       C  0.75701954  0.17796182  0.57550974     0.37100
C1072       C  0.67178960  0.12554279  0.90951084     0.40400
N1073       N  0.91147909  0.26340757  0.89386974    -0.37700
N1074       N  0.82857643  0.17098545  0.94607931    -0.39300
N1075       N  0.73547876  0.01648515  0.56343378    -0.37000
N1076       N  0.62456958  0.27271674  0.56469953    -0.39400
N1077       N  0.66988527  0.21992334  0.88956211    -0.39200
N1078       N  0.67508807  0.11111650  0.87256718    -0.36800
N1079       N  0.67931585  0.09783745  0.61497522    -0.37900
N1080       N  0.79368530  0.18545200  0.60264746    -0.39500
C1081       C  0.91732128  0.19159891  0.71803112    -0.04500
C1082       C  0.94045585  0.20538545  0.76054110     0.09700
C1083       C  0.95860648  0.18467555  0.79745823    -0.01800
C1084       C  0.93964836  0.15164722  0.79782189    -0.00100
C1085       C  0.92227019  0.13601224  0.75270929    -0.03700
C1086       C  0.92109495  0.15704481  0.71082148     0.03300
C1087       C  0.97332616  0.23586446  0.75405444     0.10200
C1088       C  0.00678893  0.19464918  0.82832893     0.36000
C1089       C  0.91984636  0.14443759  0.66086398     0.39500
C1090       C  0.94694190  0.26700388  0.76428191    -0.04100
C1091       C  0.47808413  0.29560767  0.75057153     0.03100
C1092       C  0.53897917  0.29225640  0.73660869    -0.03100
C1093       C  0.55599002  0.26168694  0.71246301     0.00100
C1094       C  0.52699565  0.23268615  0.72698511    -0.02500
C1095       C  0.88944961  0.27019319  0.78909698     0.36800
C1096       C  0.60797606  0.25869598  0.68021403     0.40400
C1097       C  0.44631413  0.32714335  0.74956700     0.39500
C1098       C  0.55266132  0.19936542  0.71707716     0.36500
C1099       C  0.91070122  0.21269381  0.67655835     0.37100
C1100       C  0.93178498  0.13726717  0.84575622     0.40400
N1101       N  0.41515093  0.01693950  0.74913053    -0.37700
N1102       N  0.84383812  0.27544204  0.80829132    -0.39300
N1103       N  0.64968662  0.25442895  0.65534794    -0.37000
N1104       N  0.57010282  0.17185886  0.71300579    -0.39400
N1105       N  0.54515240  0.20143492  0.85396422    -0.39200
N1106       N  0.92452875  0.12516123  0.88354279    -0.36800
N1107       N  0.92013487  0.13408722  0.62132131    -0.37900
N1108       N  0.91215892  0.22928751  0.64276732    -0.39500
C1109       C  0.75691462  0.17049115  0.71173041    -0.04500
C1110       C  0.76288501  0.19625316  0.74878197     0.09700
C1111       C  0.78664711  0.18185769  0.79147247    -0.01800
C1112       C  0.80474570  0.14641014  0.79513933    -0.00100
C1113       C  0.81945748  0.12523086  0.75362119    -0.03700
C1114       C  0.78977510  0.13799434  0.71157064     0.03300
C1115       C  0.72598779  0.23221310  0.75111099     0.10200
C1116       C  0.78982830  0.20400705  0.83282255     0.36000
C1117       C  0.79315892  0.11756084  0.66778510     0.39500
C1118       C  0.67281946  0.23390940  0.77956249    -0.04100
C1119       C  0.64010498  0.26534866  0.78948361     0.03100
C1120       C  0.64622022  0.29538408  0.75980893    -0.03700
C1121       C  0.70140047  0.29491249  0.73244433     0.00100
C1122       C  0.74138180  0.26500394  0.73011237    -0.02500
C1123       C  0.65066560  0.20116034  0.79502789     0.36800
C1124       C  0.71603900  0.32488495  0.70470671     0.40400
C1125       C  0.59588689  0.26600193  0.82804269     0.39500
C1126       C  0.79863965  0.27012320  0.70691160     0.36500
C1127       C  0.70919193  0.17515190  0.67853123     0.37100
C1128       C  0.80280254  0.13039503  0.84175287     0.40400
N1129       N  0.56055743  0.26759536  0.85926780    -0.37700
N1130       N  0.63885686  0.17331462  0.80468558    -0.39300
N1131       N  0.72778548  0.01556839  0.68259155    -0.37000
N1132       N  0.84405124  0.27869518  0.69031007    -0.39400
N1133       N  0.79129991  0.22417102  0.86351142    -0.39200
N1134       N  0.80068334  0.11651564  0.87848424    -0.36800
N1135       N  0.79909776  0.10121080  0.63270982    -0.37900
N1136       N  0.66987839  0.17937899  0.65285151    -0.39500
C1137       C  0.88424644  0.43717131  0.25152038    -0.01500
C1138       C  0.58555979  0.65245722  0.24873688    -0.01500
C1139       C  0.58635134  0.43625639  0.00007767    -0.01500
C1140       C  0.88124366  0.65238922  0.00122109    -0.01500
O1141       O  0.52617250  0.65892437  0.32885038    -0.56800
C1142       C  0.90457685  0.33881982  0.45319996     0.75800
O1143       O  0.50300584  0.41367072  0.45088494    -0.58000
C1144       C  0.56163041  0.33896180  0.29727586     0.75800
C1145       C  0.90853304  0.41460452  0.29457315     0.78200
Cd1146     Cd  0.98271610  0.37747161  0.37526147     1.37500
O1147       O  0.93681298  0.65843013  0.41932086    -0.56800
O1148       O  0.88000139  0.40001726  0.32879367    -0.55600
C1149       C  0.55933688  0.41467163  0.45593242     0.78200
O1150       O  0.96466314  0.41182054  0.29925324    -0.58000
O1151       O  0.90131177  0.37075734  0.44808569    -0.56400
O1152       O  0.56800385  0.37063955  0.30507475    -0.56400
O1153       O  0.58646615  0.39864842  0.42176007    -0.55600
O1154       O  0.90943501  0.66243172  0.09074326    -0.56800
C1155       C  0.57126451  0.34143769  0.20124704     0.75800
O1156       O  0.50547220  0.41952392  0.05888795    -0.58000
C1157       C  0.89632616  0.34173162  0.04940230     0.75800
C1158       C  0.91040665  0.41656903  0.20528297     0.78200
Cd1159     Cd  0.98493207  0.37689595  0.12531159     1.37500
O1160       O  0.55842991  0.66180290  0.15941446    -0.56800
O1161       O  0.88404440  0.39470269  0.17896667    -0.55600
C1162       C  0.55993419  0.41565669  0.04549702     0.78200
O1163       O  0.96545229  0.41963287  0.19309289    -0.58000
O1164       O  0.55140236  0.37155090  0.20510769    -0.56400
O1165       O  0.91692452  0.37174523  0.04632704    -0.56400
O1166       O  0.58558479  0.39338813  0.07035637    -0.55600
C1167       C  0.51158034  0.51710678  0.46003566    -0.04500
C1168       C  0.52573441  0.53782304  0.99885070     0.09700
C1169       C  0.54677924  0.52447338  0.04160053    -0.01800
C1170       C  0.55173234  0.48977665  0.04513812    -0.00100
C1171       C  0.55132313  0.46928068  0.00145491    -0.03700
C1172       C  0.53413755  0.48516513  0.45734001     0.03300
C1173       C  0.99385403  0.56873029  0.00341247     0.10200
C1174       C  0.54396766  0.54525651  0.08495381     0.36000
C1175       C  0.54499815  0.47224310  0.40820253     0.39500
C1176       C  0.93903163  0.56713023  0.02877349    -0.04100
C1177       C  0.91043600  0.59694764  0.04007795     0.03100
C1178       C  0.92763625  0.62583721  0.01274174    -0.03700
C1179       C  0.98823611  0.62839724  0.49767120     0.00100
C1180       C  0.02015958  0.59907670  0.48924938    -0.02500
C1181       C  0.91138844  0.53441517  0.03904661     0.36800
C1182       C  0.02033489  0.66002526  0.49597389     0.40400
C1183       C  0.85845656  0.59628441  0.07245064     0.39500
C1184       C  0.57841479  0.60075915  0.46548829     0.36500
C1185       C  0.96349008  0.52550943  0.42898271     0.37100
C1186       C  0.55828178  0.47650162  0.09365620     0.40400
N1187       N  0.81643858  0.59472167  0.09758619    -0.37700
N1188       N  0.89242287  0.50722099  0.04345487    -0.39300
N1189       N  0.05164720  0.34995053  0.49471861    -0.37000
N1190       N  0.62468206  0.60518060  0.44705293    -0.39400
N1191       N  0.53312566  0.56313059  0.11723791    -0.39200
N1192       N  0.56149293  0.46508434  0.13192175    -0.36800
N1193       N  0.55365120  0.46156685  0.36921941    -0.37900
N1194       N  0.92504698  0.53119447  0.40339364    -0.39500
C1195       C  0.71281062  0.50331085  0.04003564    -0.04500
C1196       C  0.70660549  0.52771724  0.00246631     0.09700
C1197       C  0.68337620  0.51199021  0.45983422    -0.01800
C1198       C  0.66763688  0.47614270  0.45602671    -0.00100
C1199       C  0.65241235  0.45612598  0.99752955    -0.03700
C1200       C  0.68220320  0.46989112  0.03953614     0.03300
C1201       C  0.74276970  0.56389489  0.99965175     0.10200
C1202       C  0.67599700  0.53347931  0.41932617     0.36000
C1203       C  0.68252501  0.44869283  0.08163813     0.39500
C1204       C  0.79564739  0.56537765  0.47100337    -0.04100
C1205       C  0.82829674  0.59675163  0.46103800     0.03100
C1206       C  0.82094408  0.62771345  0.98990750    -0.03700
C1207       C  0.76521025  0.62744023  0.01680420     0.00100
C1208       C  0.72666755  0.59679176  0.02059451    -0.02500
C1209       C  0.81734466  0.53243738  0.45519793     0.36800
C1210       C  0.74879246  0.65833590  0.04284364     0.40400
C1211       C  0.87438527  0.59632057  0.42380108     0.39500
C1212       C  0.67038268  0.60036489  0.04621156     0.36500
C1213       C  0.75700514  0.51131125  0.07551427     0.37100
C1214       C  0.67174394  0.45888252  0.40950694     0.40400
N1215       N  0.91144087  0.59675869  0.39383854    -0.37700
N1216       N  0.82858031  0.50432146  0.44604343    -0.39300
N1217       N  0.73548344  0.34982676  0.06342431    -0.37000
N1218       N  0.62455043  0.60605873  0.06467632    -0.39400
N1219       N  0.66983053  0.55326640  0.38958530    -0.39200
N1220       N  0.67502092  0.44446191  0.37255808    -0.36800
N1221       N  0.67941264  0.43112767  0.11492132    -0.37900
N1222       N  0.79365703  0.51881073  0.10265933    -0.39500
C1223       C  0.91730300  0.52491211  0.21801953    -0.04500
C1224       C  0.94042878  0.53870864  0.26052280     0.09700
C1225       C  0.95857357  0.51800894  0.29745420    -0.01800
C1226       C  0.93961629  0.48498004  0.29782730    -0.00100
C1227       C  0.92226774  0.46933518  0.25271570    -0.03700
C1228       C  0.92111009  0.49035917  0.21081730     0.03300
C1229       C  0.97329992  0.56918479  0.25402445     0.10200
C1230       C  0.00675803  0.52798685  0.32831823     0.36000
C1231       C  0.91992392  0.47774625  0.16085990     0.39500
C1232       C  0.94691381  0.60032506  0.26424200    -0.04100
C1233       C  0.47805694  0.62892723  0.25052775     0.03100
C1234       C  0.53896089  0.62557247  0.23658798    -0.03100
C1235       C  0.55597995  0.59500269  0.21245054     0.00100
C1236       C  0.52697782  0.56600329  0.22696626    -0.02500
C1237       C  0.88942552  0.60351323  0.28906344     0.36800
C1238       C  0.60796492  0.59201007  0.18020081     0.40400
C1239       C  0.44629085  0.66046461  0.24952126     0.39500
C1240       C  0.55265081  0.53268175  0.21707999     0.36500
C1241       C  0.91065915  0.54599788  0.17654165     0.37100
C1242       C  0.93172545  0.47061301  0.34576752     0.40400
N1243       N  0.41513808  0.35026410  0.24908651    -0.37700
N1244       N  0.84381425  0.60875159  0.30826408    -0.39300
N1245       N  0.64967013  0.58774391  0.15532688    -0.37000
N1246       N  0.57010064  0.50517575  0.21303164    -0.39400
N1247       N  0.54512365  0.53477873  0.35394680    -0.39200
N1248       N  0.92445397  0.45851898  0.38356097    -0.36800
N1249       N  0.92025736  0.46739610  0.12131752    -0.37900
N1250       N  0.91208617  0.56258109  0.14273938    -0.39500
C1251       C  0.75691206  0.50381609  0.21173771    -0.04500
C1252       C  0.76286252  0.52957278  0.24879581     0.09700
C1253       C  0.78661767  0.51517339  0.29148829    -0.01800
C1254       C  0.80472421  0.47972556  0.29514714    -0.00100
C1255       C  0.81945559  0.45855431  0.25362460    -0.03700
C1256       C  0.78978643  0.47132480  0.21157056     0.03300
C1257       C  0.72596357  0.56553088  0.25112252     0.10200
C1258       C  0.78978720  0.53732221  0.33283914     0.36000
C1259       C  0.79320799  0.45091071  0.16776899     0.39500
C1260       C  0.67279680  0.56723222  0.27957796    -0.04100
C1261       C  0.64008202  0.59867210  0.28948931     0.03100
C1262       C  0.64619518  0.62870282  0.25980487    -0.03700
C1263       C  0.70137291  0.62822631  0.23243607     0.00100
C1264       C  0.74135112  0.59831792  0.23011040    -0.02500
C1265       C  0.65064803  0.53448475  0.29505311     0.36800
C1266       C  0.71600642  0.65819196  0.20468287     0.40400
C1267       C  0.59588036  0.59933870  0.32806076     0.39500
C1268       C  0.79860533  0.60343168  0.20690295     0.36500
C1269       C  0.70918872  0.50847377  0.17853913     0.37100
C1270       C  0.80275645  0.46370110  0.34175417     0.40400
N1271       N  0.56057189  0.60094335  0.35930102    -0.37700
N1272       N  0.63884233  0.50663976  0.30471869    -0.39300
N1273       N  0.72775578  0.34887134  0.18256010    -0.37000
N1274       N  0.84401810  0.61199983  0.19029899    -0.39400
N1275       N  0.79124654  0.55749441  0.36351700    -0.39200
N1276       N  0.80062175  0.44981399  0.37847977    -0.36800
N1277       N  0.79917529  0.43458121  0.13267773    -0.37900
N1278       N  0.66987263  0.51269923  0.15286087    -0.39500
C1279       C  0.88424911  0.43718102  0.75150919    -0.01500
C1280       C  0.58558356  0.65247368  0.74874107    -0.01500
C1281       C  0.58633324  0.43625302  0.50007690    -0.01500
C1282       C  0.88124767  0.65238185  0.50122833    -0.01500
O1283       O  0.52625810  0.65893940  0.82888245    -0.56800
C1284       C  0.90457449  0.33882936  0.95319417     0.75800
O1285       O  0.50302077  0.41368176  0.95088008    -0.58000
C1286       C  0.56166251  0.33898352  0.79727874     0.75800
C1287       C  0.90853320  0.41460918  0.79455782     0.78200
Cd1288     Cd  0.98272530  0.37748179  0.87525714     1.37500
O1289       O  0.93677494  0.65843586  0.91929534    -0.56800
O1290       O  0.88000391  0.40003659  0.82879400    -0.55600
C1291       C  0.55935207  0.41467572  0.95593312     0.78200
O1292       O  0.96466157  0.41181128  0.79922374    -0.58000
O1293       O  0.90135231  0.37077055  0.94809992    -0.56400
O1294       O  0.56797299  0.37067018  0.80503911    -0.56400
O1295       O  0.58647904  0.39864957  0.92176298    -0.55600
O1296       O  0.90943435  0.66242688  0.59074822    -0.56800
C1297       C  0.57127640  0.34144671  0.70124633     0.75800
O1298       O  0.50544670  0.41950234  0.55886317    -0.58000
C1299       C  0.89632468  0.34172539  0.54940636     0.75800
C1300       C  0.91039801  0.41657880  0.70526792     0.78200
Cd1301     Cd  0.98492487  0.37689485  0.62531164     1.37500
O1302       O  0.55843597  0.66180737  0.65941813    -0.56800
O1303       O  0.88404924  0.39468630  0.67898937    -0.55600
C1304       C  0.55991923  0.41565049  0.54549289     0.78200
O1305       O  0.96543383  0.41966267  0.69304712    -0.58000
O1306       O  0.55140841  0.37155986  0.70510113    -0.56400
O1307       O  0.91691813  0.37174020  0.54632873    -0.56400
O1308       O  0.58558225  0.39339870  0.57037164    -0.55600
C1309       C  0.51155032  0.51709601  0.96003311    -0.04500
C1310       C  0.52577798  0.53782806  0.49885474     0.09700
C1311       C  0.54680962  0.52446696  0.54160470    -0.01800
C1312       C  0.55170702  0.48976813  0.54514130    -0.00100
C1313       C  0.55129900  0.46927486  0.50145595    -0.03700
C1314       C  0.53414746  0.48516472  0.95733951     0.03300
C1315       C  0.99389405  0.56873327  0.50343268     0.10200
C1316       C  0.54401523  0.54524701  0.58495955     0.36000
C1317       C  0.54504343  0.47224906  0.90820294     0.39500
C1318       C  0.93906417  0.56712568  0.52878173    -0.04100
C1319       C  0.91044698  0.59693798  0.54007724     0.03100
C1320       C  0.92764258  0.62582929  0.51274785    -0.03700
C1321       C  0.98822330  0.62839524  0.99764694     0.00100
C1322       C  0.02012994  0.59906849  0.98922339    -0.02500
C1323       C  0.91141932  0.53440789  0.53903210     0.36800
C1324       C  0.02033494  0.66001969  0.99594584     0.40400
C1325       C  0.85846775  0.59626677  0.57245081     0.39500
C1326       C  0.57838510  0.60074137  0.96545948     0.36500
C1327       C  0.96346257  0.52548821  0.92897194     0.37100
C1328       C  0.55819258  0.47648692  0.59366334     0.40400
N1329       N  0.81645739  0.59469879  0.59759441    -0.37700
N1330       N  0.89244650  0.50721293  0.54341197    -0.39300
N1331       N  0.05165072  0.34994370  0.99469229    -0.37000
N1332       N  0.62465314  0.60515227  0.94702140    -0.39400
N1333       N  0.53318570  0.56311492  0.61725184    -0.39200
N1334       N  0.56135376  0.46506857  0.63193279    -0.36800
N1335       N  0.55372160  0.46157628  0.86922045    -0.37900
N1336       N  0.92502394  0.53116662  0.90337469    -0.39500
C1337       C  0.71281093  0.50330559  0.54003621    -0.04500
C1338       C  0.70661259  0.52771182  0.50246838     0.09700
C1339       C  0.68338306  0.51199243  0.95982909    -0.01800
C1340       C  0.66765419  0.47614232  0.95602287    -0.00100
C1341       C  0.65239354  0.45612599  0.49753322    -0.03700
C1342       C  0.68218070  0.46989212  0.53954427     0.03300
C1343       C  0.74277866  0.56388860  0.49965700     0.10200
C1344       C  0.67602962  0.53347484  0.91931015     0.36000
C1345       C  0.68245905  0.44871377  0.58166664     0.39500
C1346       C  0.79564289  0.56538115  0.97100530    -0.04100
C1347       C  0.82829833  0.59675360  0.96103701     0.03100
C1348       C  0.82094797  0.62770837  0.48991746    -0.03700
C1349       C  0.76522003  0.62743142  0.51681838     0.00100
C1350       C  0.72667991  0.59678262  0.52060908    -0.02500
C1351       C  0.81734361  0.53243854  0.95521368     0.36800
C1352       C  0.74879767  0.65832790  0.54285662     0.40400
C1353       C  0.87440653  0.59631162  0.92381576     0.39500
C1354       C  0.67039978  0.60035419  0.54623076     0.36500
C1355       C  0.75702021  0.51129638  0.57550754     0.37100
C1356       C  0.67179135  0.45887665  0.90950888     0.40400
N1357       N  0.91147980  0.59674107  0.89386804    -0.37700
N1358       N  0.82857765  0.50431936  0.94607878    -0.39300
N1359       N  0.73548239  0.34981922  0.56343427    -0.37000
N1360       N  0.62456931  0.60605159  0.56469609    -0.39400
N1361       N  0.66988776  0.55325692  0.88955894    -0.39200
N1362       N  0.67508967  0.44445041  0.87256566    -0.36800
N1363       N  0.67931487  0.43117346  0.61497474    -0.37900
N1364       N  0.79368600  0.51878648  0.60264537    -0.39500
C1365       C  0.91732213  0.52493179  0.71802768    -0.04500
C1366       C  0.94045681  0.53871919  0.76053779     0.09700
C1367       C  0.95860697  0.51800914  0.79745504    -0.01800
C1368       C  0.93964871  0.48498037  0.79781905    -0.00100
C1369       C  0.92227085  0.46934583  0.75270706    -0.03700
C1370       C  0.92109512  0.49037808  0.71081839     0.03300
C1371       C  0.97332710  0.56919763  0.75405105     0.10200
C1372       C  0.00678956  0.52798274  0.82832588     0.36000
C1373       C  0.91984586  0.47777040  0.66086102     0.39500
C1374       C  0.94694188  0.60033705  0.76427945    -0.04100
C1375       C  0.47808374  0.62894112  0.75056922     0.03100
C1376       C  0.53898206  0.62558986  0.73660588    -0.03100
C1377       C  0.55599062  0.59502043  0.71246007     0.00100
C1378       C  0.52699703  0.56601959  0.72698139    -0.02500
C1379       C  0.88945048  0.60352652  0.78909469     0.36800
C1380       C  0.60797651  0.59202977  0.68021124     0.40400
C1381       C  0.44631515  0.66047701  0.74956422     0.39500
C1382       C  0.55266192  0.53269889  0.71707378     0.36500
C1383       C  0.91070306  0.54602672  0.67655499     0.37100
C1384       C  0.93178605  0.47060079  0.84575323     0.40400
N1385       N  0.41515383  0.35027244  0.74912535    -0.37700
N1386       N  0.84384002  0.60877521  0.80828896    -0.39300
N1387       N  0.64968785  0.58776274  0.65534443    -0.37000
N1388       N  0.57010339  0.50519239  0.71300260    -0.39400
N1389       N  0.54515296  0.53476804  0.85396137    -0.39200
N1390       N  0.92453027  0.45849466  0.88354001    -0.36800
N1391       N  0.92013371  0.46741978  0.62131886    -0.37900
N1392       N  0.91216110  0.56262065  0.64276340    -0.39500
C1393       C  0.75691567  0.50382378  0.71172881    -0.04500
C1394       C  0.76288542  0.52958590  0.74877901     0.09700
C1395       C  0.78664745  0.51519140  0.79146999    -0.01800
C1396       C  0.80474720  0.47974180  0.79513754    -0.00100
C1397       C  0.81945758  0.45856424  0.75361903    -0.03700
C1398       C  0.78977554  0.47132683  0.71156796     0.03300
C1399       C  0.72598840  0.56554529  0.75110907     0.10200
C1400       C  0.78983029  0.53734004  0.83282040     0.36000
C1401       C  0.79315925  0.45089314  0.66778267     0.39500
C1402       C  0.67282015  0.56724241  0.77955979    -0.04100
C1403       C  0.64010594  0.59868191  0.78948053     0.03100
C1404       C  0.64622123  0.62871640  0.75980739    -0.03700
C1405       C  0.70140192  0.62824551  0.73244161     0.00100
C1406       C  0.74138287  0.59833711  0.73010969    -0.02500
C1407       C  0.65066619  0.53449317  0.79502503     0.36800
C1408       C  0.71603970  0.65821756  0.70470348     0.40400
C1409       C  0.59588711  0.59933475  0.82803966     0.39500
C1410       C  0.79864060  0.60345576  0.70690926     0.36500
C1411       C  0.70919294  0.50848462  0.67852908     0.37100
C1412       C  0.80280362  0.46372816  0.84175105     0.40400
N1413       N  0.56055670  0.60092828  0.85926443    -0.37700
N1414       N  0.63885714  0.50664747  0.80468274    -0.39300
N1415       N  0.72779012  0.34890281  0.68259482    -0.37000
N1416       N  0.84405235  0.61202756  0.69030788    -0.39400
N1417       N  0.79130272  0.55750354  0.86350861    -0.39200
N1418       N  0.80068523  0.44984917  0.87848208    -0.36800
N1419       N  0.79909747  0.43454306  0.63270805    -0.37900
N1420       N  0.66987872  0.51271191  0.65284915    -0.39500
C1421       C  0.88424899  0.77050444  0.25151934    -0.01500
C1422       C  0.58555537  0.98579047  0.24873960    -0.01500
C1423       C  0.58635345  0.76958918  0.00007754    -0.01500
C1424       C  0.88124093  0.98572237  0.00122414    -0.01500
O1425       O  0.52617299  0.99225795  0.32885452    -0.56800
C1426       C  0.90457681  0.67215504  0.45319795     0.75800
O1427       O  0.50300628  0.74700410  0.45088397    -0.58000
C1428       C  0.56163156  0.67229553  0.29727428     0.75800
C1429       C  0.90853606  0.74793775  0.29457171     0.78200
Cd1430     Cd  0.98271726  0.71080497  0.37525980     1.37500
O1431       O  0.93681258  0.99176277  0.41932454    -0.56800
O1432       O  0.88000233  0.73335031  0.32879241    -0.55600
C1433       C  0.55933927  0.74800453  0.45593055     0.78200
O1434       O  0.96466372  0.74515368  0.29925173    -0.58000
O1435       O  0.90131320  0.70409074  0.44808388    -0.56400
O1436       O  0.56800587  0.70397232  0.30507345    -0.56400
O1437       O  0.58646666  0.73198215  0.42175897    -0.55600
O1438       O  0.90943084  0.99576478  0.09074595    -0.56800
C1439       C  0.57126639  0.67477030  0.20124618     0.75800
O1440       O  0.50547459  0.75285811  0.05888865    -0.58000
C1441       C  0.89632772  0.67506506  0.04940140     0.75800
C1442       C  0.91040680  0.74990285  0.20528261     0.78200
Cd1443     Cd  0.98493291  0.71022928  0.12531022     1.37500
O1444       O  0.55842407  0.99513523  0.15941745    -0.56800
O1445       O  0.88404491  0.72803742  0.17896410    -0.55600
C1446       C  0.55993528  0.74898879  0.04549706     0.78200
O1447       O  0.96545462  0.75296516  0.19309308    -0.58000
O1448       O  0.55140294  0.70488454  0.20510624    -0.56400
O1449       O  0.91692685  0.70507873  0.04632485    -0.56400
O1450       O  0.58558528  0.72671992  0.07035381    -0.55600
C1451       C  0.51157719  0.85043916  0.46003845    -0.04500
C1452       C  0.52572909  0.87115513  0.99885334     0.09700
C1453       C  0.54677637  0.85780549  0.04160535    -0.01800
C1454       C  0.55173576  0.82310903  0.04513937    -0.00100
C1455       C  0.55132524  0.80261421  0.00145524    -0.03700
C1456       C  0.53413766  0.81849860  0.45734282     0.03300
C1457       C  0.99384874  0.90206178  0.00341734     0.10200
C1458       C  0.54396266  0.87858819  0.08495819     0.36000
C1459       C  0.54499839  0.80557752  0.40820420     0.39500
C1460       C  0.93902725  0.90046298  0.02877721    -0.04100
C1461       C  0.91043179  0.93028016  0.04008106     0.03100
C1462       C  0.92763151  0.95916915  0.01274549    -0.03700
C1463       C  0.98823303  0.96172902  0.49767582     0.00100
C1464       C  0.02015456  0.93240870  0.48925465    -0.02500
C1465       C  0.91138352  0.86774758  0.03904997     0.36800
C1466       C  0.02033122  0.99335775  0.49597869     0.40400
C1467       C  0.85845156  0.92961728  0.07245342     0.39500
C1468       C  0.57841070  0.93409112  0.46549348     0.36500
C1469       C  0.96348750  0.85884198  0.42898525     0.37100
C1470       C  0.55829269  0.80983386  0.09365696     0.40400
N1471       N  0.81643314  0.92805505  0.09758911    -0.37700
N1472       N  0.89241770  0.84055301  0.04345739    -0.39300
N1473       N  0.05164914  0.68328365  0.49471515    -0.37000
N1474       N  0.62467787  0.93851237  0.44705804    -0.39400
N1475       N  0.53312025  0.89646126  0.11724213    -0.39200
N1476       N  0.56150954  0.79841612  0.13192218    -0.36800
N1477       N  0.55365211  0.79490194  0.36922038    -0.37900
N1478       N  0.92504499  0.86452669  0.40339608    -0.39500
C1479       C  0.71281167  0.83664282  0.04003627    -0.04500
C1480       C  0.70660382  0.86104911  0.00246638     0.09700
C1481       C  0.68337459  0.84532264  0.45983416    -0.01800
C1482       C  0.66763731  0.80947522  0.45602601    -0.00100
C1483       C  0.65241420  0.78945791  0.99752747    -0.03700
C1484       C  0.68220535  0.80322148  0.03953501     0.03300
C1485       C  0.74276785  0.89722729  0.99965312     0.10200
C1486       C  0.67599426  0.86681236  0.41932758     0.36000
C1487       C  0.68253298  0.78202163  0.08163476     0.39500
C1488       C  0.79564551  0.89871003  0.47100456    -0.04100
C1489       C  0.82829454  0.93008425  0.46103957     0.03100
C1490       C  0.82094068  0.96104569  0.98990920    -0.03700
C1491       C  0.76520798  0.96077213  0.01680506     0.00100
C1492       C  0.72666488  0.93012337  0.02059597    -0.02500
C1493       C  0.81734267  0.86576979  0.45519871     0.36800
C1494       C  0.74878890  0.99166783  0.04284518     0.40400
C1495       C  0.87438334  0.92965317  0.42380273     0.39500
C1496       C  0.67038107  0.93369594  0.04621411     0.36500
C1497       C  0.75700354  0.84464405  0.07551549     0.37100
C1498       C  0.67174464  0.79221548  0.40950565     0.40400
N1499       N  0.91143886  0.93009140  0.39384028    -0.37700
N1500       N  0.82857779  0.83765369  0.44604398    -0.39300
N1501       N  0.73548360  0.68316097  0.06342197    -0.37000
N1502       N  0.62454905  0.93938913  0.06467960    -0.39400
N1503       N  0.66982608  0.88659995  0.38958718    -0.39200
N1504       N  0.67502151  0.77779554  0.37255646    -0.36800
N1505       N  0.67942500  0.76445422  0.11491533    -0.37900
N1506       N  0.79365326  0.85214497  0.10266060    -0.39500
C1507       C  0.91729873  0.85824498  0.21802083    -0.04500
C1508       C  0.94042494  0.87204288  0.26052713     0.09700
C1509       C  0.95856893  0.85134215  0.29745592    -0.01800
C1510       C  0.93961661  0.81831339  0.29782944    -0.00100
C1511       C  0.92226990  0.80266815  0.25271587    -0.03700
C1512       C  0.92111351  0.82369253  0.21081909     0.03300
C1513       C  0.97329283  0.90251845  0.25402772     0.10200
C1514       C  0.00675392  0.86132108  0.32832009     0.36000
C1515       C  0.91993523  0.81108061  0.16086109     0.39500
C1516       C  0.94690849  0.93365855  0.26424573    -0.04100
C1517       C  0.47805219  0.96226065  0.25053300     0.03100
C1518       C  0.53895841  0.95890646  0.23659226    -0.03100
C1519       C  0.55597501  0.92833618  0.21245413     0.00100
C1520       C  0.52697169  0.89933622  0.22697015    -0.02500
C1521       C  0.88941972  0.93684676  0.28906642     0.36800
C1522       C  0.60795963  0.92534316  0.18020428     0.40400
C1523       C  0.44628792  0.99379859  0.24952760     0.39500
C1524       C  0.55264567  0.86601537  0.21708283     0.36500
C1525       C  0.91065335  0.87933147  0.17654468     0.37100
C1526       C  0.93172607  0.80394507  0.34576863     0.40400
N1527       N  0.41513902  0.68359730  0.24908359    -0.37700
N1528       N  0.84380860  0.94208498  0.30826672    -0.39300
N1529       N  0.64966473  0.92107635  0.15533058    -0.37000
N1530       N  0.57009585  0.83850950  0.21303351    -0.39400
N1531       N  0.54512071  0.86811335  0.35394887    -0.39200
N1532       N  0.92445514  0.79185077  0.38356139    -0.36800
N1533       N  0.92027465  0.80073097  0.12131752    -0.37900
N1534       N  0.91207973  0.89591431  0.14274303    -0.39500
C1535       C  0.75691253  0.83715031  0.21173765    -0.04500
C1536       C  0.76286157  0.86290640  0.24879713     0.09700
C1537       C  0.78661622  0.84850651  0.29148837    -0.01800
C1538       C  0.80472507  0.81305868  0.29514771    -0.00100
C1539       C  0.81945637  0.79188864  0.25362214    -0.03700
C1540       C  0.78979006  0.80465966  0.21157070     0.03300
C1541       C  0.72596178  0.89886404  0.25112414     0.10200
C1542       C  0.78978439  0.87065454  0.33284057     0.36000
C1543       C  0.79321561  0.78424852  0.16776585     0.39500
C1544       C  0.67279465  0.90056597  0.27957978    -0.04100
C1545       C  0.64008075  0.93200604  0.28949026     0.03100
C1546       C  0.64619347  0.96203556  0.25980682    -0.03700
C1547       C  0.70136836  0.96156004  0.23243755     0.00100
C1548       C  0.74134953  0.93165191  0.23011098    -0.02500
C1549       C  0.65064653  0.86781821  0.29505464     0.36800
C1550       C  0.71600268  0.99152537  0.20468361     0.40400
C1551       C  0.59588039  0.93267233  0.32806378     0.39500
C1552       C  0.79860315  0.93676615  0.20690427     0.36500
C1553       C  0.70918761  0.84180704  0.17854033     0.37100
C1554       C  0.80275736  0.79703336  0.34175366     0.40400
N1555       N  0.56057316  0.93427731  0.35930535    -0.37700
N1556       N  0.63883977  0.83997350  0.30472035    -0.39300
N1557       N  0.72775582  0.68220347  0.18255642    -0.37000
N1558       N  0.84401516  0.94533493  0.19030106    -0.39400
N1559       N  0.79124235  0.89082666  0.36351906    -0.39200
N1560       N  0.80062268  0.78314588  0.37847808    -0.36800
N1561       N  0.79918738  0.76792148  0.13267192    -0.37900
N1562       N  0.66987092  0.84603118  0.15286303    -0.39500
C1563       C  0.88425008  0.77051491  0.75150822    -0.01500
C1564       C  0.58558039  0.98580704  0.74874354    -0.01500
C1565       C  0.58633513  0.76958572  0.50007620    -0.01500
C1566       C  0.88124430  0.98571422  0.50123042    -0.01500
O1567       O  0.52625861  0.99227265  0.82888667    -0.56800
C1568       C  0.90457467  0.67216417  0.95319210     0.75800
O1569       O  0.50302168  0.74701498  0.95087945    -0.58000
C1570       C  0.56166412  0.67231615  0.79727647     0.75800
C1571       C  0.90853480  0.74794207  0.79455671     0.78200
Cd1572     Cd  0.98272645  0.71081514  0.87525557     1.37500
O1573       O  0.93677427  0.99176842  0.91929890    -0.56800
O1574       O  0.88000499  0.73336980  0.82879270    -0.55600
C1575       C  0.55935237  0.74800887  0.95593183     0.78200
O1576       O  0.96466281  0.74514422  0.79922256    -0.58000
O1577       O  0.90135353  0.70410402  0.94809818    -0.56400
O1578       O  0.56797531  0.70400331  0.80503817    -0.56400
O1579       O  0.58647972  0.73198318  0.92176165    -0.55600
O1580       O  0.90942993  0.99575980  0.59075076    -0.56800
C1581       C  0.57127749  0.67478048  0.70124423     0.75800
O1582       O  0.50544920  0.75283658  0.55886386    -0.58000
C1583       C  0.89632550  0.67505778  0.54940480     0.75800
C1584       C  0.91040074  0.74991326  0.70526794     0.78200
Cd1585     Cd  0.98492585  0.71022816  0.62531024     1.37500
O1586       O  0.55843007  0.99513988  0.65942104    -0.56800
O1587       O  0.88404948  0.72802065  0.67898645    -0.55600
C1588       C  0.55991917  0.74898327  0.54549249     0.78200
O1589       O  0.96543558  0.75299485  0.69304756    -0.58000
O1590       O  0.55140918  0.70489304  0.70509965    -0.56400
O1591       O  0.91692086  0.70507409  0.54632655    -0.56400
O1592       O  0.58558274  0.72673041  0.57036934    -0.55600
C1593       C  0.51154768  0.85042941  0.96003716    -0.04500
C1594       C  0.52577332  0.87115985  0.49885903     0.09700
C1595       C  0.54680619  0.85779953  0.54160823    -0.01800
C1596       C  0.55171055  0.82310029  0.54514286    -0.00100
C1597       C  0.55130130  0.80260836  0.50145636    -0.03700
C1598       C  0.53414807  0.81849731  0.95734194     0.03300
C1599       C  0.99388968  0.90206646  0.50343655     0.10200
C1600       C  0.54400973  0.87857851  0.58496387     0.36000
C1601       C  0.54504407  0.80558350  0.90820410     0.39500
C1602       C  0.93905798  0.90045707  0.52878628    -0.04100
C1603       C  0.91044260  0.93027085  0.54008011     0.03100
C1604       C  0.92763732  0.95916179  0.51275153    -0.03700
C1605       C  0.98822060  0.96172724  0.99765135     0.00100
C1606       C  0.02012607  0.93240148  0.98922811    -0.02500
C1607       C  0.91141346  0.86773973  0.53903536     0.36800
C1608       C  0.02033120  0.99335204  0.99595008     0.40400
C1609       C  0.85846263  0.92959966  0.57245353     0.39500
C1610       C  0.57838121  0.93407334  0.96546445     0.36500
C1611       C  0.96346031  0.85882046  0.92897480     0.37100
C1612       C  0.55820384  0.80981910  0.59366427     0.40400
N1613       N  0.81645116  0.92803211  0.59759745    -0.37700
N1614       N  0.89244114  0.84054555  0.54341444    -0.39300
N1615       N  0.05165293  0.68327690  0.99468899    -0.37000
N1616       N  0.62464914  0.93848409  0.94702647    -0.39400
N1617       N  0.53317942  0.89644584  0.61725637    -0.39200
N1618       N  0.56137093  0.79840048  0.63193285    -0.36800
N1619       N  0.55372253  0.79491146  0.86922164    -0.37900
N1620       N  0.92502201  0.86449881  0.90337721    -0.39500
C1621       C  0.71281162  0.83663699  0.54003740    -0.04500
C1622       C  0.70661136  0.86104434  0.50246858     0.09700
C1623       C  0.68338193  0.84532482  0.95982929    -0.01800
C1624       C  0.66765462  0.80947445  0.95602311    -0.00100
C1625       C  0.65239559  0.78945764  0.49753300    -0.03700
C1626       C  0.68218299  0.80322313  0.53954130     0.03300
C1627       C  0.74277632  0.89722043  0.49965804     0.10200
C1628       C  0.67602690  0.86680788  0.91931141     0.36000
C1629       C  0.68246753  0.78204285  0.58166263     0.39500
C1630       C  0.79564150  0.89871325  0.97100634    -0.04100
C1631       C  0.82829609  0.93008591  0.96103865     0.03100
C1632       C  0.82094523  0.96104055  0.48991862    -0.03700
C1633       C  0.76521588  0.96076375  0.51682001     0.00100
C1634       C  0.72667805  0.93011461  0.52061020    -0.02500
C1635       C  0.81734194  0.86577056  0.95521458     0.36800
C1636       C  0.74879385  0.99165983  0.54285803     0.40400
C1637       C  0.87440483  0.92964416  0.92381770     0.39500
C1638       C  0.67039814  0.93368532  0.54623334     0.36500
C1639       C  0.75701860  0.84462948  0.57550886     0.37100
C1640       C  0.67179180  0.79220971  0.90950762     0.40400
N1641       N  0.91147833  0.93007360  0.89386976    -0.37700
N1642       N  0.82857506  0.83765161  0.94607941    -0.39300
N1643       N  0.73548272  0.68315340  0.56343202    -0.37000
N1644       N  0.62456753  0.93938201  0.56469942    -0.39400
N1645       N  0.66988361  0.88659018  0.88956099    -0.39200
N1646       N  0.67509045  0.77778381  0.87256388    -0.36800
N1647       N  0.67932787  0.76449953  0.61496912    -0.37900
N1648       N  0.79368191  0.85212099  0.60264671    -0.39500
C1649       C  0.91731841  0.85826509  0.71803095    -0.04500
C1650       C  0.94045120  0.87205272  0.76054074     0.09700
C1651       C  0.95860302  0.85134244  0.79745792    -0.01800
C1652       C  0.93964906  0.81831402  0.79782059    -0.00100
C1653       C  0.92227323  0.80267804  0.75270800    -0.03700
C1654       C  0.92109874  0.82371181  0.71081893     0.03300
C1655       C  0.97332046  0.90253156  0.75405427     0.10200
C1656       C  0.00678571  0.86131696  0.82832821     0.36000
C1657       C  0.91985771  0.81110453  0.66086180     0.39500
C1658       C  0.94693800  0.93367054  0.76428287    -0.04100
C1659       C  0.47808043  0.96227495  0.75057425     0.03100
C1660       C  0.53897762  0.95892304  0.73661007    -0.03100
C1661       C  0.55598435  0.92835392  0.71246438     0.00100
C1662       C  0.52699154  0.89935330  0.72698449    -0.02500
C1663       C  0.88944512  0.93686002  0.78909776     0.36800
C1664       C  0.60797086  0.92536290  0.68021471     0.40400
C1665       C  0.44631149  0.99381079  0.74957121     0.39500
C1666       C  0.55265650  0.86603249  0.71707682     0.36500
C1667       C  0.91069648  0.87935986  0.67655825     0.37100
C1668       C  0.93178681  0.80393281  0.84575409     0.40400
N1669       N  0.41515484  0.68360559  0.74912248    -0.37700
N1670       N  0.84383352  0.94210869  0.80829212    -0.39300
N1671       N  0.64968225  0.92109510  0.65534803    -0.37000
N1672       N  0.57009843  0.83852613  0.71300432    -0.39400
N1673       N  0.54514966  0.86810266  0.85396322    -0.39200
N1674       N  0.92453153  0.79182630  0.88354099    -0.36800
N1675       N  0.92015198  0.80075486  0.62131938    -0.37900
N1676       N  0.91215382  0.89595392  0.64276684    -0.39500
C1677       C  0.75691626  0.83715827  0.71172914    -0.04500
C1678       C  0.76288356  0.86291999  0.74877937     0.09700
C1679       C  0.78664670  0.84852380  0.79147145    -0.01800
C1680       C  0.80474719  0.81307564  0.79513740    -0.00100
C1681       C  0.81945990  0.79189773  0.75361726    -0.03700
C1682       C  0.78977897  0.80466149  0.71156703     0.03300
C1683       C  0.72598749  0.89887832  0.75111014     0.10200
C1684       C  0.78982736  0.87067252  0.83282171     0.36000
C1685       C  0.79316764  0.78423110  0.66777917     0.39500
C1686       C  0.67281748  0.90057620  0.77956158    -0.04100
C1687       C  0.64010425  0.93201510  0.78948223     0.03100
C1688       C  0.64621825  0.96204993  0.75980892    -0.03700
C1689       C  0.70139824  0.96157907  0.73244270     0.00100
C1690       C  0.74138017  0.93167088  0.73011071    -0.02500
C1691       C  0.65066450  0.86782669  0.79502637     0.36800
C1692       C  0.71603562  0.99155107  0.70470417     0.40400
C1693       C  0.59588708  0.93266847  0.82804243     0.39500
C1694       C  0.79863789  0.93679010  0.70691090     0.36500
C1695       C  0.70919204  0.84181753  0.67853052     0.37100
C1696       C  0.80280449  0.79706054  0.84174995     0.40400
N1697       N  0.56055799  0.93426231  0.85926887    -0.37700
N1698       N  0.63885438  0.83998111  0.80468435    -0.39300
N1699       N  0.72779018  0.68223501  0.68259105    -0.37000
N1700       N  0.84404960  0.94536273  0.69030983    -0.39400
N1701       N  0.79129885  0.89083568  0.86351088    -0.39200
N1702       N  0.80068625  0.78318106  0.87848085    -0.36800
N1703       N  0.79911033  0.76788383  0.63270216    -0.37900
N1704       N  0.66987671  0.84604360  0.65285121    -0.39500
loop_ 
_geom_bond_atom_site_label_1 
_geom_bond_atom_site_label_2 
_geom_bond_distance 
_geom_bond_site_symmetry_2 
_ccdc_geom_bond_type 
C1            C9   1.599       .  S
C1           C22   1.599       .  S
C1           C91   1.520       .  S
C1          C119   1.679       .  S
C2           C98   1.519       .  S
C2          C126   1.687       .  S
C2          C292   1.618       .  S
C2          C303   1.626       .  S
C3           C26   1.601       .  S
C3           C35   1.519       .  S
C3           C63   1.668   1_554  S
C3          C155   1.599   1_554  S
C4           C42   1.518       .  S
C4           C70   1.689   1_554  S
C4          C432   1.620   1_554  S
C4          C305   1.627       .  S
O5          C292   1.280       .  A
O5        Cd1146   2.572   1_455  S
C6          C714   1.620   1_545  S
C6           O15   1.268       .  A
C6          O579   1.280   1_545  A
O7           C13   1.271       .  A
O7         Cd862   2.551   1_455  S
C8          C570   1.618   1_545  S
C8           O16   1.268       .  A
C8          O573   1.280   1_545  A
C9           O14   1.270       .  A
C9           O12   1.269       .  A
Cd10         O15   2.693       .  S
Cd10         O14   2.551       .  S
Cd10         O12   2.810       .  S
Cd10       O1425   2.572   1_545  S
Cd10        O859   2.551       .  S
Cd10        O869   2.793       .  S
Cd10        O868   2.695       .  S
Cd10        O579   2.601   1_545  S
O11         C290   1.280       .  A
O11        Cd294   2.601       .  S
C13         C145   1.599       .  S
C13          O17   1.269       .  A
O16        Cd862   2.695   1_455  S
O17        Cd862   2.793   1_455  S
O18         C305   1.290       .  A
O18        Cd307   2.696       .  S
C19         C570   1.626   1_545  S
C19          O28   1.268       .  A
C19         O592   1.290   1_545  A
O20          C26   1.274       .  A
O20        Cd875   2.533   1_455  S
C21         C572   1.627   1_545  S
C21          O29   1.267       .  A
C21         O586   1.290   1_545  A
C22          O27   1.274       .  A
C22          O25   1.267       .  A
Cd23         O29   2.688       .  S
Cd23         O27   2.523       .  S
Cd23         O25   2.756       .  S
Cd23        O586   2.696   1_545  S
Cd23        O872   2.533       .  S
Cd23        O882   2.763       .  S
Cd23        O880   2.694       .  S
Cd23       O1444   2.715   1_545  S
O24         C303   1.290       .  A
O24       Cd1159   2.715   1_455  S
C26          O30   1.268       .  A
O28        Cd875   2.694   1_455  S
O30        Cd875   2.763   1_455  S
C31          C36   1.356       .  A
C31         C174   1.375       .  A
C31         C901   1.433   1_455  S
C32          C33   1.390   1_556  A
C32         C173   1.375       .  A
C32         C889   1.414   1_456  S
C33          C34   1.374       .  A
C33          C38   1.436       .  S
C34          C35   1.437       .  A
C34          C50   1.453       .  S
C35         C178   1.436   1_554  A
C36         C177   1.436       .  A
C36          C39   1.453       .  S
C37          C40   1.399       .  A
C37         C186   1.384   1_554  A
C37         C884   1.414   1_554  S
C38          N55   1.147       .  T
C39          N57   1.159       .  T
C40          C41   1.366       .  A
C40          C45   1.453       .  S
C41          C42   1.419       .  A
C41          C47   1.449       .  S
C42         C185   1.412   1_554  A
C43          C44   1.373       .  A
C43         C184   1.412       .  A
C43          C46   1.433       .  S
C44         C179   1.384       .  A
C44         C900   1.446       .  S
C45          N52   1.155       .  T
C46         N337   1.149       .  T
C47          N51   1.156       .  T
C48         C896   1.446       .  S
C48          N54   1.156       .  T
C49         C883   1.433       .  S
C49          N58   1.150       .  T
C50          N56   1.156       .  T
N53         C614   1.149   1_545  T
C59          C60   1.432       .  A
C59          C64   1.478       .  A
C59          C77   1.436       .  S
C60         C203   1.426   1_554  A
C60          C65   1.634   1_554  S
C61          C62   1.453       .  A
C61         C202   1.426       .  A
C61          C66   1.423       .  S
C62         C205   1.432       .  A
C62          C78   1.441       .  S
C63          C64   1.445   1_556  A
C63         C204   1.432       .  A
C64          C67   1.439       .  S
C65          C72   1.451   1_556  A
C65         C210   1.408       .  A
C66          N83   1.150       .  T
C67          N85   1.157       .  T
C68          C69   1.456       .  A
C68         C207   1.408       .  A
C68          C73   1.442       .  S
C69         C212   1.451       .  A
C69          C75   1.437       .  S
C70          C71   1.435   1_556  A
C70         C211   1.451       .  A
C71          C72   1.481       .  A
C71          C74   1.445       .  S
C72          C76   1.435       .  S
C73          N80   1.157       .  T
C74         N365   1.157       .  T
C75          N79   1.156       .  T
C76          N82   1.155       .  T
C77          N86   1.156       .  T
C78          N84   1.158       .  T
N81         C642   1.157   1_545  T
C87          C88   1.392       .  A
C87          C92   1.372       .  A
C87         C105   1.433       .  S
C88          C89   1.382       .  A
C88          C93   1.414       .  S
C89          C90   1.363       .  A
C89          C94   1.437       .  S
C90          C91   1.438       .  A
C90         C106   1.451       .  S
C91          C92   1.431       .  A
C92          C95   1.456       .  S
C93          C96   1.384       .  A
C93         C952   1.403       .  A
C94         N963   1.151       .  T
C95         N113   1.156       .  T
C96         C949   1.373       .  A
C96         C101   1.447       .  S
C97          C98   1.413   1_655  A
C97         C948   1.373       .  A
C97         C103   1.433       .  S
C98          C99   1.413       .  A
C99         C100   1.369       .  A
C99         C102   1.451       .  S
C100        C945   1.403   1_455  A
C100        C104   1.452       .  S
C101        N108   1.156       .  T
C102        N109   1.156       .  T
C103        N391   1.149       .  T
C104        N110   1.154       .  T
C105        N114   1.145       .  T
C106        N112   1.159       .  T
N107        C671   1.149   1_545  T
N111        C946   1.151       .  T
C115        C116   1.434       .  A
C115        C120   1.477       .  A
C115        C133   1.436       .  S
C116        C117   1.428       .  A
C116        C121   1.640       .  S
C117        C118   1.459       .  A
C117        C122   1.425       .  S
C118        C119   1.436       .  A
C118        C134   1.439       .  S
C119        C120   1.447       .  A
C120        C123   1.439       .  S
C121        C124   1.410       .  A
C121        C128   1.457       .  A
C122        N139   1.150       .  T
C123        N141   1.157       .  T
C124        C125   1.458       .  A
C124        C129   1.444       .  S
C125        C126   1.451       .  A
C125        C131   1.434       .  S
C126        C127   1.431       .  A
C127        C128   1.481       .  A
C127        C130   1.446       .  S
C128        C132   1.432       .  S
C129        N136   1.158       .  T
C130        N421   1.157       .  T
C131        N135   1.156       .  T
C132        N138   1.155       .  T
C133        N142   1.156       .  T
C134        N140   1.157       .  T
N137        C698   1.157   1_545  T
C143        C151   1.599       .  S
C143        C164   1.599       .  S
C143        C233   1.520       .  S
C143        C261   1.679       .  S
C144        C434   1.618       .  S
C144        C445   1.626       .  S
C144        C240   1.519       .  S
C144        C268   1.687       .  S
C145        C168   1.601       .  S
C145        C177   1.519       .  S
C145        C205   1.668       .  S
C146        C290   1.620       .  S
C146        C447   1.627       .  S
C146        C184   1.518       .  S
C146        C212   1.689       .  S
O147        C434   1.280       .  A
O147      Cd1288   2.572   1_455  S
C148        C572   1.620   1_546  S
C148        O157   1.268       .  A
C148        O721   1.280   1_545  A
O149        C155   1.271       .  A
O149      Cd1004   2.551   1_455  S
C150        C712   1.618   1_545  S
C150        O715   1.280   1_545  A
C150        O158   1.268       .  A
C151        O156   1.270       .  A
C151        O154   1.269       .  A
Cd152      O1567   2.572   1_545  S
Cd152      O1001   2.551       .  S
Cd152      O1011   2.793       .  S
Cd152      O1010   2.695       .  S
Cd152       O157   2.692       .  S
Cd152       O721   2.601   1_545  S
Cd152       O156   2.551       .  S
Cd152       O154   2.811       .  S
O153        C432   1.280       .  A
O153       Cd436   2.601       .  S
C155        O159   1.269       .  A
O158      Cd1004   2.695   1_455  S
O159      Cd1004   2.793   1_455  S
O160        C447   1.290       .  A
O160       Cd449   2.696       .  S
C161        C712   1.626   1_545  S
C161        O170   1.269       .  A
C161        O734   1.290   1_545  A
O162        C168   1.274       .  A
O162      Cd1017   2.533   1_455  S
C163        C714   1.627   1_545  S
C163        O728   1.290   1_545  A
C163        O171   1.267       .  A
C164        O169   1.274       .  A
C164        O167   1.267       .  A
Cd165       O728   2.696   1_545  S
Cd165      O1014   2.533       .  S
Cd165      O1024   2.763       .  S
Cd165       O171   2.688       .  S
Cd165      O1022   2.694       .  S
Cd165      O1586   2.715   1_545  S
Cd165       O169   2.523       .  S
Cd165       O167   2.756       .  S
O166        C445   1.290       .  A
O166      Cd1301   2.715   1_455  S
C168        O172   1.268       .  A
O170      Cd1017   2.694   1_455  S
O172      Cd1017   2.763   1_455  S
C173        C178   1.356       .  A
C173       C1043   1.433   1_455  S
C174        C175   1.390       .  A
C174       C1031   1.414   1_455  S
C175        C176   1.374       .  A
C175        C180   1.436       .  S
C176        C177   1.437       .  A
C176        C192   1.453       .  S
C178        C181   1.453       .  S
C179        C182   1.399       .  A
C179       C1026   1.414       .  S
C180        N197   1.146       .  T
C181        N199   1.159       .  T
C182        C183   1.366       .  A
C182        C187   1.453       .  S
C183        C184   1.419       .  A
C183        C189   1.449       .  S
C185        C186   1.373       .  A
C185        C188   1.433       .  S
C186       C1042   1.446       .  S
C187        N194   1.155       .  T
C188        N479   1.149       .  T
C189        N193   1.156       .  T
C190       C1038   1.446       .  S
C190        N196   1.156       .  T
C191       C1025   1.433       .  S
C191        N200   1.150       .  T
C192        N198   1.156       .  T
N195        C756   1.149   1_545  T
C201        C202   1.432       .  A
C201        C206   1.478       .  A
C201        C219   1.436       .  S
C202        C207   1.634       .  S
C203        C204   1.453       .  A
C203        C208   1.424       .  S
C204        C220   1.441       .  S
C205        C206   1.445       .  A
C206        C209   1.439       .  S
C207        C214   1.451       .  A
C208        N225   1.150       .  T
C209        N227   1.157       .  T
C210        C211   1.456       .  A
C210        C215   1.442       .  S
C211        C217   1.437       .  S
C212        C213   1.435       .  A
C213        C214   1.481       .  A
C213        C216   1.445       .  S
C214        C218   1.435       .  S
C215        N222   1.157       .  T
C216        N507   1.157       .  T
C217        N221   1.156       .  T
C218        N224   1.155       .  T
C219        N228   1.156       .  T
C220        N226   1.158       .  T
N223        C784   1.157   1_545  T
C229        C230   1.392       .  A
C229        C234   1.372       .  A
C229        C247   1.433       .  S
C230        C231   1.383       .  A
C230        C235   1.414       .  S
C231        C232   1.363       .  A
C231        C236   1.437       .  S
C232        C233   1.438       .  A
C232        C248   1.451       .  S
C233        C234   1.431       .  A
C234        C237   1.456       .  S
C235        C238   1.384       .  A
C235       C1094   1.403       .  A
C236       N1105   1.151       .  T
C237        N255   1.156       .  T
C238       C1091   1.373       .  A
C238        C243   1.447       .  S
C239       C1090   1.373       .  A
C239        C240   1.413   1_655  A
C239        C245   1.433       .  S
C240        C241   1.413       .  A
C241        C242   1.369       .  A
C241        C244   1.451       .  S
C242       C1087   1.403   1_455  A
C242        C246   1.452       .  S
C243        N250   1.156       .  T
C244        N251   1.156       .  T
C245        N533   1.149       .  T
C246        N252   1.154       .  T
C247        N256   1.145       .  T
C248        N254   1.159       .  T
N249        C813   1.149   1_545  T
N253       C1088   1.151       .  T
C257        C258   1.434       .  A
C257        C262   1.477       .  A
C257        C275   1.436       .  S
C258        C259   1.428       .  A
C258        C263   1.640       .  S
C259        C260   1.459       .  A
C259        C264   1.425       .  S
C260        C261   1.436       .  A
C260        C276   1.439       .  S
C261        C262   1.447       .  A
C262        C265   1.439       .  S
C263        C266   1.410       .  A
C263        C270   1.457       .  A
C264        N281   1.150       .  T
C265        N283   1.157       .  T
C266        C267   1.458       .  A
C266        C271   1.444       .  S
C267        C268   1.451       .  A
C267        C273   1.434       .  S
C268        C269   1.431       .  A
C269        C270   1.481       .  A
C269        C272   1.446       .  S
C270        C274   1.432       .  S
C271        N278   1.158       .  T
C272        N563   1.157       .  T
C273        N277   1.156       .  T
C274        N280   1.155       .  T
C275        N284   1.156       .  T
C276        N282   1.157       .  T
N279        C840   1.157   1_545  T
C285        C293   1.599       .  S
C285        C306   1.599       .  S
C285        C375   1.520       .  S
C285        C403   1.679       .  S
C286        C576   1.618       .  S
C286        C587   1.626       .  S
C286        C382   1.519       .  S
C286        C410   1.687       .  S
C287        C439   1.599   1_554  S
C287        C310   1.601       .  S
C287        C319   1.519       .  S
C287        C347   1.668   1_554  S
C288        C716   1.620   1_554  S
C288        C589   1.627       .  S
C288        C326   1.518       .  S
C288        C354   1.689   1_554  S
O289        C576   1.280       .  A
O289      Cd1430   2.572   1_455  S
C290        O299   1.268       .  A
O291        C297   1.271       .  A
O291      Cd1146   2.551   1_455  S
C292        O300   1.268       .  A
C293        O298   1.270       .  A
C293        O296   1.269       .  A
Cd294       O857   2.572       .  S
Cd294      O1143   2.551       .  S
Cd294      O1153   2.793       .  S
Cd294      O1152   2.695       .  S
Cd294       O299   2.693       .  S
Cd294       O298   2.551       .  S
Cd294       O296   2.810       .  S
O295        C574   1.280       .  A
O295       Cd578   2.601       .  S
C297        C429   1.599       .  S
C297        O301   1.269       .  A
O300      Cd1146   2.695   1_455  S
O301      Cd1146   2.793   1_455  S
O302        C589   1.290       .  A
O302       Cd591   2.696       .  S
C303        O312   1.268       .  A
O304        C310   1.274       .  A
O304      Cd1159   2.533   1_455  S
C305        O313   1.267       .  A
C306        O311   1.274       .  A
C306        O309   1.267       .  A
Cd307      O1156   2.533       .  S
Cd307      O1166   2.763       .  S
Cd307       O313   2.688       .  S
Cd307      O1164   2.694       .  S
Cd307       O876   2.715       .  S
Cd307       O311   2.523       .  S
Cd307       O309   2.756       .  S
O308        C587   1.290       .  A
O308      Cd1443   2.715   1_455  S
C310        O314   1.268       .  A
O312      Cd1159   2.694   1_455  S
O314      Cd1159   2.763   1_455  S
C315        C458   1.375       .  A
C315        C320   1.356       .  A
C315       C1185   1.433   1_455  S
C316        C457   1.375       .  A
C316        C317   1.390   1_556  A
C316       C1173   1.414   1_456  S
C317        C318   1.374       .  A
C317        C322   1.436       .  S
C318        C319   1.437       .  A
C318        C334   1.453       .  S
C319        C462   1.436   1_554  A
C320        C461   1.436       .  A
C320        C323   1.453       .  S
C321        C324   1.399       .  A
C321        C470   1.384   1_554  A
C321       C1168   1.414   1_554  S
C322        N339   1.147       .  T
C323        N341   1.159       .  T
C324        C325   1.366       .  A
C324        C329   1.453       .  S
C325        C326   1.419       .  A
C325        C331   1.449       .  S
C326        C469   1.412   1_554  A
C327        C468   1.412       .  A
C327        C328   1.373       .  A
C327        C330   1.433       .  S
C328        C463   1.384       .  A
C328       C1184   1.446       .  S
C329        N336   1.155       .  T
C330        N621   1.149       .  T
C331        N335   1.156       .  T
C332       C1180   1.446       .  S
C332        N338   1.156       .  T
C333       C1167   1.433       .  S
C333        N342   1.150       .  T
C334        N340   1.156       .  T
C343        C344   1.432       .  A
C343        C348   1.478       .  A
C343        C361   1.436       .  S
C344        C487   1.425   1_554  A
C344        C349   1.634   1_554  S
C345        C486   1.426       .  A
C345        C346   1.453       .  A
C345        C350   1.424       .  S
C346        C489   1.432       .  A
C346        C362   1.441       .  S
C347        C488   1.432       .  A
C347        C348   1.445   1_556  A
C348        C351   1.439       .  S
C349        C494   1.408       .  A
C349        C356   1.451   1_556  A
C350        N367   1.150       .  T
C351        N369   1.157       .  T
C352        C491   1.408       .  A
C352        C353   1.456       .  A
C352        C357   1.442       .  S
C353        C496   1.451       .  A
C353        C359   1.437       .  S
C354        C495   1.451       .  A
C354        C355   1.435   1_556  A
C355        C356   1.481       .  A
C355        C358   1.445       .  S
C356        C360   1.435       .  S
C357        N364   1.157       .  T
C358        N649   1.157       .  T
C359        N363   1.156       .  T
C360        N366   1.155       .  T
C361        N370   1.156       .  T
C362        N368   1.158       .  T
C371        C372   1.392       .  A
C371        C376   1.372       .  A
C371        C389   1.433       .  S
C372        C373   1.382       .  A
C372        C377   1.413       .  S
C373        C374   1.363       .  A
C373        C378   1.437       .  S
C374        C375   1.438       .  A
C374        C390   1.451       .  S
C375        C376   1.431       .  A
C376        C379   1.456       .  S
C377        C380   1.384       .  A
C377       C1236   1.403       .  A
C378       N1247   1.151       .  T
C379        N397   1.156       .  T
C380       C1233   1.373       .  A
C380        C385   1.447       .  S
C381       C1232   1.373       .  A
C381        C382   1.413   1_655  A
C381        C387   1.433       .  S
C382        C383   1.413       .  A
C383        C384   1.369       .  A
C383        C386   1.451       .  S
C384       C1229   1.403   1_455  A
C384        C388   1.452       .  S
C385        N392   1.156       .  T
C386        N393   1.156       .  T
C387        N675   1.149       .  T
C388        N394   1.154       .  T
C389        N398   1.145       .  T
C390        N396   1.159       .  T
N395       C1230   1.151       .  T
C399        C400   1.434       .  A
C399        C404   1.477       .  A
C399        C417   1.436       .  S
C400        C401   1.428       .  A
C400        C405   1.640       .  S
C401        C402   1.459       .  A
C401        C406   1.425       .  S
C402        C403   1.436       .  A
C402        C418   1.439       .  S
C403        C404   1.447       .  A
C404        C407   1.439       .  S
C405        C408   1.410       .  A
C405        C412   1.457       .  A
C406        N423   1.150       .  T
C407        N425   1.157       .  T
C408        C409   1.458       .  A
C408        C413   1.444       .  S
C409        C410   1.451       .  A
C409        C415   1.434       .  S
C410        C411   1.431       .  A
C411        C412   1.481       .  A
C411        C414   1.446       .  S
C412        C416   1.432       .  S
C413        N420   1.158       .  T
C414        N705   1.157       .  T
C415        N419   1.156       .  T
C416        N422   1.155       .  T
C417        N426   1.156       .  T
C418        N424   1.157       .  T
C427        C435   1.599       .  S
C427        C448   1.599       .  S
C427        C517   1.520       .  S
C427        C545   1.679       .  S
C428        C718   1.618       .  S
C428        C729   1.626       .  S
C428        C524   1.519       .  S
C428        C552   1.687       .  S
C429        C452   1.601       .  S
C429        C461   1.519       .  S
C429        C489   1.668       .  S
C430        C574   1.620       .  S
C430        C731   1.627       .  S
C430        C468   1.518       .  S
C430        C496   1.689       .  S
O431        C718   1.280       .  A
O431      Cd1572   2.572   1_455  S
C432        O441   1.268       .  A
O433        C439   1.271       .  A
O433      Cd1288   2.551   1_455  S
C434        O442   1.268       .  A
C435        O440   1.270       .  A
C435        O438   1.269       .  A
Cd436       O999   2.572       .  S
Cd436      O1285   2.551       .  S
Cd436      O1295   2.793       .  S
Cd436      O1294   2.695       .  S
Cd436       O441   2.692       .  S
Cd436       O440   2.551       .  S
Cd436       O438   2.811       .  S
O437        C716   1.280       .  A
O437       Cd720   2.601       .  S
C439        O443   1.269       .  A
O442      Cd1288   2.695   1_455  S
O443      Cd1288   2.793   1_455  S
O444        C731   1.290       .  A
O444       Cd733   2.696       .  S
C445        O454   1.268       .  A
O446        C452   1.274       .  A
O446      Cd1301   2.533   1_455  S
C447        O455   1.267       .  A
C448        O453   1.274       .  A
C448        O451   1.267       .  A
Cd449      O1298   2.533       .  S
Cd449      O1308   2.763       .  S
Cd449       O455   2.688       .  S
Cd449      O1306   2.694       .  S
Cd449      O1018   2.715       .  S
Cd449       O453   2.523       .  S
Cd449       O451   2.756       .  S
O450        C729   1.290       .  A
O450      Cd1585   2.715   1_455  S
C452        O456   1.268       .  A
O454      Cd1301   2.694   1_455  S
O456      Cd1301   2.763   1_455  S
C457        C462   1.356       .  A
C457       C1327   1.433   1_455  S
C458        C459   1.390       .  A
C458       C1315   1.414   1_455  S
C459        C460   1.374       .  A
C459        C464   1.436       .  S
C460        C461   1.437       .  A
C460        C476   1.453       .  S
C462        C465   1.453       .  S
C463        C466   1.399       .  A
C463       C1310   1.414       .  S
C464        N481   1.147       .  T
C465        N483   1.159       .  T
C466        C467   1.366       .  A
C466        C471   1.453       .  S
C467        C468   1.419       .  A
C467        C473   1.449       .  S
C469        C470   1.373       .  A
C469        C472   1.433       .  S
C470       C1326   1.446       .  S
C471        N478   1.155       .  T
C472        N763   1.149       .  T
C473        N477   1.156       .  T
C474       C1322   1.446       .  S
C474        N480   1.156       .  T
C475       C1309   1.433       .  S
C475        N484   1.150       .  T
C476        N482   1.156       .  T
C485        C486   1.432       .  A
C485        C490   1.478       .  A
C485        C503   1.436       .  S
C486        C491   1.634       .  S
C487        C488   1.453       .  A
C487        C492   1.424       .  S
C488        C504   1.441       .  S
C489        C490   1.445       .  A
C490        C493   1.439       .  S
C491        C498   1.451       .  A
C492        N509   1.150       .  T
C493        N511   1.157       .  T
C494        C495   1.456       .  A
C494        C499   1.442       .  S
C495        C501   1.437       .  S
C496        C497   1.435       .  A
C497        C498   1.481       .  A
C497        C500   1.445       .  S
C498        C502   1.435       .  S
C499        N506   1.157       .  T
C500        N791   1.157       .  T
C501        N505   1.156       .  T
C502        N508   1.155       .  T
C503        N512   1.156       .  T
C504        N510   1.158       .  T
C513        C514   1.392       .  A
C513        C518   1.372       .  A
C513        C531   1.433       .  S
C514        C515   1.382       .  A
C514        C519   1.414       .  S
C515        C516   1.363       .  A
C515        C520   1.437       .  S
C516        C517   1.438       .  A
C516        C532   1.451       .  S
C517        C518   1.431       .  A
C518        C521   1.456       .  S
C519        C522   1.384       .  A
C519       C1378   1.403       .  A
C520       N1389   1.151       .  T
C521        N539   1.156       .  T
C522       C1375   1.373       .  A
C522        C527   1.447       .  S
C523       C1374   1.373       .  A
C523        C524   1.413   1_655  A
C523        C529   1.433       .  S
C524        C525   1.413       .  A
C525        C526   1.369       .  A
C525        C528   1.451       .  S
C526       C1371   1.403   1_455  A
C526        C530   1.452       .  S
C527        N534   1.156       .  T
C528        N535   1.156       .  T
C529        N817   1.149       .  T
C530        N536   1.154       .  T
C531        N540   1.145       .  T
C532        N538   1.159       .  T
N537       C1372   1.151       .  T
C541        C542   1.434       .  A
C541        C546   1.477       .  A
C541        C559   1.436       .  S
C542        C543   1.428       .  A
C542        C547   1.640       .  S
C543        C544   1.459       .  A
C543        C548   1.425       .  S
C544        C545   1.436       .  A
C544        C560   1.439       .  S
C545        C546   1.447       .  A
C546        C549   1.439       .  S
C547        C550   1.410       .  A
C547        C554   1.457       .  A
C548        N565   1.150       .  T
C549        N567   1.157       .  T
C550        C551   1.458       .  A
C550        C555   1.444       .  S
C551        C552   1.451       .  A
C551        C557   1.434       .  S
C552        C553   1.431       .  A
C553        C554   1.481       .  A
C553        C556   1.446       .  S
C554        C558   1.432       .  S
C555        N562   1.158       .  T
C556        N847   1.157       .  T
C557        N561   1.156       .  T
C558        N564   1.155       .  T
C559        N568   1.156       .  T
C560        N566   1.157       .  T
C569        C577   1.599       .  S
C569        C590   1.599       .  S
C569        C659   1.520       .  S
C569        C687   1.679       .  S
C570        C666   1.519       .  S
C570        C694   1.687       .  S
C571        C723   1.599   1_554  S
C571        C594   1.601       .  S
C571        C603   1.519       .  S
C571        C631   1.668   1_554  S
C572        C610   1.518       .  S
C572        C638   1.689   1_554  S
O573       Cd862   2.572   1_465  S
C574        O583   1.268       .  A
O575        C581   1.271       .  A
O575      Cd1430   2.551   1_455  S
C576        O584   1.268       .  A
C577        O582   1.271       .  A
C577        O580   1.269       .  A
Cd578      O1141   2.572       .  S
Cd578      O1427   2.551       .  S
Cd578      O1437   2.793       .  S
Cd578      O1436   2.695       .  S
Cd578       O583   2.693       .  S
Cd578       O582   2.551       .  S
Cd578       O580   2.810       .  S
C581        C713   1.599       .  S
C581        O585   1.268       .  A
O584      Cd1430   2.695   1_455  S
O585      Cd1430   2.793   1_455  S
C587        O596   1.268       .  A
O588        C594   1.274       .  A
O588      Cd1443   2.533   1_455  S
C589        O597   1.267       .  A
C590        O595   1.274       .  A
C590        O593   1.267       .  A
Cd591      O1440   2.533       .  S
Cd591      O1450   2.763       .  S
Cd591       O597   2.688       .  S
Cd591      O1448   2.694       .  S
Cd591      O1160   2.715       .  S
Cd591       O595   2.523       .  S
Cd591       O593   2.756       .  S
O592       Cd875   2.715   1_465  S
C594        O598   1.268       .  A
O596      Cd1443   2.694   1_455  S
O598      Cd1443   2.763   1_455  S
C599        C742   1.375       .  A
C599        C604   1.356       .  A
C599       C1469   1.433   1_455  S
C600        C741   1.375       .  A
C600        C601   1.390   1_556  A
C600       C1457   1.414   1_456  S
C601        C602   1.374       .  A
C601        C606   1.436       .  S
C602        C603   1.437       .  A
C602        C618   1.453       .  S
C603        C746   1.436   1_554  A
C604        C745   1.436       .  A
C604        C607   1.453       .  S
C605        C608   1.399       .  A
C605        C754   1.384   1_554  A
C605       C1452   1.414   1_554  S
C606        N623   1.147       .  T
C607        N625   1.159       .  T
C608        C609   1.366       .  A
C608        C613   1.453       .  S
C609        C610   1.419       .  A
C609        C615   1.449       .  S
C610        C753   1.412   1_554  A
C611        C752   1.412       .  A
C611        C612   1.373       .  A
C611        C614   1.433       .  S
C612        C747   1.384       .  A
C612       C1468   1.446       .  S
C613        N620   1.155       .  T
C615        N619   1.156       .  T
C616       C1464   1.446       .  S
C616        N622   1.156       .  T
C617       C1451   1.433       .  S
C617        N626   1.150       .  T
C618        N624   1.156       .  T
C627        C628   1.432       .  A
C627        C632   1.478       .  A
C627        C645   1.436       .  S
C628        C771   1.425   1_554  A
C628        C633   1.634   1_554  S
C629        C770   1.425       .  A
C629        C630   1.453       .  A
C629        C634   1.424       .  S
C630        C773   1.432       .  A
C630        C646   1.441       .  S
C631        C772   1.432       .  A
C631        C632   1.445   1_556  A
C632        C635   1.439       .  S
C633        C778   1.408       .  A
C633        C640   1.451   1_556  A
C634        N651   1.150       .  T
C635        N653   1.157       .  T
C636        C775   1.408       .  A
C636        C637   1.456       .  A
C636        C641   1.442       .  S
C637        C780   1.451       .  A
C637        C643   1.437       .  S
C638        C779   1.451       .  A
C638        C639   1.435   1_556  A
C639        C640   1.481       .  A
C639        C642   1.445       .  S
C640        C644   1.435       .  S
C641        N648   1.157       .  T
C643        N647   1.156       .  T
C644        N650   1.155       .  T
C645        N654   1.156       .  T
C646        N652   1.158       .  T
C655        C656   1.392       .  A
C655        C660   1.372       .  A
C655        C673   1.433       .  S
C656        C657   1.382       .  A
C656        C661   1.413       .  S
C657        C658   1.363       .  A
C657        C662   1.437       .  S
C658        C659   1.438       .  A
C658        C674   1.451       .  S
C659        C660   1.431       .  A
C660        C663   1.456       .  S
C661        C664   1.384       .  A
C661       C1520   1.403       .  A
C662       N1531   1.151       .  T
C663        N681   1.156       .  T
C664       C1517   1.373       .  A
C664        C669   1.447       .  S
C665       C1516   1.373       .  A
C665        C666   1.413   1_655  A
C665        C671   1.433       .  S
C666        C667   1.413       .  A
C667        C668   1.369       .  A
C667        C670   1.451       .  S
C668       C1513   1.403   1_455  A
C668        C672   1.452       .  S
C669        N676   1.156       .  T
C670        N677   1.156       .  T
C672        N678   1.154       .  T
C673        N682   1.145       .  T
C674        N680   1.159       .  T
N679       C1514   1.151       .  T
C683        C684   1.434       .  A
C683        C688   1.477       .  A
C683        C701   1.436       .  S
C684        C685   1.428       .  A
C684        C689   1.640       .  S
C685        C686   1.459       .  A
C685        C690   1.425       .  S
C686        C687   1.437       .  A
C686        C702   1.439       .  S
C687        C688   1.447       .  A
C688        C691   1.439       .  S
C689        C692   1.410       .  A
C689        C696   1.457       .  A
C690        N707   1.150       .  T
C691        N709   1.157       .  T
C692        C693   1.458       .  A
C692        C697   1.444       .  S
C693        C694   1.451       .  A
C693        C699   1.434       .  S
C694        C695   1.431       .  A
C695        C696   1.481       .  A
C695        C698   1.446       .  S
C696        C700   1.432       .  S
C697        N704   1.158       .  T
C699        N703   1.156       .  T
C700        N706   1.155       .  T
C701        N710   1.156       .  T
C702        N708   1.157       .  T
C711        C719   1.599       .  S
C711        C732   1.599       .  S
C711        C801   1.520       .  S
C711        C829   1.679       .  S
C712        C808   1.519       .  S
C712        C836   1.687       .  S
C713        C736   1.601       .  S
C713        C745   1.519       .  S
C713        C773   1.668       .  S
C714        C752   1.518       .  S
C714        C780   1.689       .  S
O715      Cd1004   2.572   1_465  S
C716        O725   1.268       .  A
O717        C723   1.271       .  A
O717      Cd1572   2.551   1_455  S
C718        O726   1.268       .  A
C719        O724   1.270       .  A
C719        O722   1.269       .  A
Cd720      O1283   2.572       .  S
Cd720      O1569   2.551       .  S
Cd720      O1579   2.793       .  S
Cd720      O1578   2.695       .  S
Cd720       O725   2.692       .  S
Cd720       O724   2.551       .  S
Cd720       O722   2.811       .  S
C723        O727   1.268       .  A
O726      Cd1572   2.695   1_455  S
O727      Cd1572   2.793   1_455  S
C729        O738   1.268       .  A
O730        C736   1.274       .  A
O730      Cd1585   2.533   1_455  S
C731        O739   1.267       .  A
C732        O737   1.274       .  A
C732        O735   1.267       .  A
Cd733      O1582   2.533       .  S
Cd733      O1592   2.763       .  S
Cd733       O739   2.688       .  S
Cd733      O1590   2.694       .  S
Cd733      O1302   2.715       .  S
Cd733       O737   2.523       .  S
Cd733       O735   2.756       .  S
O734      Cd1017   2.715   1_465  S
C736        O740   1.268       .  A
O738      Cd1585   2.694   1_455  S
O740      Cd1585   2.763   1_455  S
C741        C746   1.356       .  A
C741       C1611   1.433   1_455  S
C742        C743   1.390       .  A
C742       C1599   1.414   1_455  S
C743        C744   1.374       .  A
C743        C748   1.436       .  S
C744        C745   1.437       .  A
C744        C760   1.453       .  S
C746        C749   1.453       .  S
C747        C750   1.399       .  A
C747       C1594   1.414       .  S
C748        N765   1.146       .  T
C749        N767   1.159       .  T
C750        C751   1.366       .  A
C750        C755   1.453       .  S
C751        C752   1.419       .  A
C751        C757   1.449       .  S
C753        C754   1.373       .  A
C753        C756   1.433       .  S
C754       C1610   1.446       .  S
C755        N762   1.155       .  T
C757        N761   1.156       .  T
C758       C1606   1.446       .  S
C758        N764   1.156       .  T
C759       C1593   1.433       .  S
C759        N768   1.150       .  T
C760        N766   1.156       .  T
C769        C770   1.432       .  A
C769        C774   1.478       .  A
C769        C787   1.436       .  S
C770        C775   1.634       .  S
C771        C772   1.453       .  A
C771        C776   1.424       .  S
C772        C788   1.441       .  S
C773        C774   1.445       .  A
C774        C777   1.439       .  S
C775        C782   1.451       .  A
C776        N793   1.150       .  T
C777        N795   1.157       .  T
C778        C779   1.456       .  A
C778        C783   1.442       .  S
C779        C785   1.437       .  S
C780        C781   1.435       .  A
C781        C782   1.481       .  A
C781        C784   1.445       .  S
C782        C786   1.435       .  S
C783        N790   1.157       .  T
C785        N789   1.156       .  T
C786        N792   1.155       .  T
C787        N796   1.156       .  T
C788        N794   1.158       .  T
C797        C798   1.392       .  A
C797        C802   1.372       .  A
C797        C815   1.433       .  S
C798        C799   1.383       .  A
C798        C803   1.414       .  S
C799        C800   1.363       .  A
C799        C804   1.437       .  S
C800        C801   1.438       .  A
C800        C816   1.451       .  S
C801        C802   1.431       .  A
C802        C805   1.456       .  S
C803        C806   1.384       .  A
C803       C1662   1.403       .  A
C804       N1673   1.151       .  T
C805        N823   1.156       .  T
C806       C1659   1.373       .  A
C806        C811   1.447       .  S
C807       C1658   1.373       .  A
C807        C808   1.413   1_655  A
C807        C813   1.433       .  S
C808        C809   1.413       .  A
C809        C810   1.369       .  A
C809        C812   1.451       .  S
C810       C1655   1.403   1_455  A
C810        C814   1.452       .  S
C811        N818   1.156       .  T
C812        N819   1.156       .  T
C814        N820   1.154       .  T
C815        N824   1.145       .  T
C816        N822   1.159       .  T
N821       C1656   1.151       .  T
C825        C826   1.434       .  A
C825        C830   1.477       .  A
C825        C843   1.436       .  S
C826        C827   1.428       .  A
C826        C831   1.640       .  S
C827        C828   1.459       .  A
C827        C832   1.425       .  S
C828        C829   1.436       .  A
C828        C844   1.439       .  S
C829        C830   1.447       .  A
C830        C833   1.439       .  S
C831        C834   1.410       .  A
C831        C838   1.457       .  A
C832        N849   1.150       .  T
C833        N851   1.157       .  T
C834        C835   1.458       .  A
C834        C839   1.444       .  S
C835        C836   1.451       .  A
C835        C841   1.434       .  S
C836        C837   1.431       .  A
C837        C838   1.481       .  A
C837        C840   1.446       .  S
C838        C842   1.432       .  S
C839        N846   1.158       .  T
C841        N845   1.156       .  T
C842        N848   1.155       .  T
C843        N852   1.156       .  T
C844        N850   1.157       .  T
C853        C861   1.599       .  S
C853        C874   1.599       .  S
C853        C943   1.520       .  S
C853        C971   1.679       .  S
C854       C1144   1.618       .  S
C854       C1155   1.626       .  S
C854        C950   1.519       .  S
C854        C978   1.687       .  S
C855       C1007   1.599   1_554  S
C855        C878   1.601       .  S
C855        C887   1.519       .  S
C855        C915   1.668   1_554  S
C856       C1284   1.620   1_554  S
C856       C1157   1.627       .  S
C856        C894   1.518       .  S
C856        C922   1.689   1_554  S
O857       C1144   1.280       .  A
C858       C1566   1.620   1_545  S
C858        O867   1.268       .  A
C858       O1431   1.280   1_545  A
O859        C865   1.271       .  A
C860       C1422   1.618   1_545  S
C860       O1425   1.280   1_545  A
C860        O868   1.268       .  A
C861        O866   1.271       .  A
C861        O864   1.269       .  A
Cd862       O867   2.693       .  S
Cd862      O1431   2.601   1_545  S
Cd862       O866   2.551       .  S
Cd862       O864   2.810       .  S
O863       C1142   1.280       .  A
O863      Cd1146   2.601       .  S
C865        C997   1.599       .  S
C865        O869   1.269       .  A
O870       C1157   1.290       .  A
O870      Cd1159   2.696       .  S
C871       C1422   1.626   1_545  S
C871        O880   1.268       .  A
C871       O1444   1.290   1_545  A
O872        C878   1.274       .  A
C873       C1424   1.627   1_545  S
C873       O1438   1.290   1_545  A
C873        O881   1.267       .  A
C874        O879   1.274       .  A
C874        O877   1.267       .  A
Cd875      O1438   2.696   1_545  S
Cd875       O881   2.688       .  S
Cd875       O879   2.523       .  S
Cd875       O877   2.756       .  S
O876       C1155   1.290       .  A
C878        O882   1.268       .  A
C883       C1026   1.375       .  A
C883        C888   1.356       .  A
C884       C1025   1.375       .  A
C884        C885   1.390   1_556  A
C885        C886   1.374       .  A
C885        C890   1.436       .  S
C886        C887   1.437       .  A
C886        C902   1.453       .  S
C887       C1030   1.436   1_554  A
C888       C1029   1.436       .  A
C888        C891   1.453       .  S
C889        C892   1.399       .  A
C889       C1038   1.384   1_654  A
C890        N907   1.147       .  T
C891        N909   1.159       .  T
C892        C893   1.366       .  A
C892        C897   1.453       .  S
C893        C894   1.419       .  A
C893        C899   1.449       .  S
C894       C1037   1.412   1_554  A
C895       C1036   1.412       .  A
C895        C896   1.373   1_655  A
C895        C898   1.433   1_655  S
C896       C1031   1.384   1_455  A
C897        N904   1.155       .  T
C898       N1189   1.149       .  T
C899        N903   1.156       .  T
C900        N906   1.156       .  T
C901        N910   1.150       .  T
C902        N908   1.156       .  T
N905       C1466   1.149   1_545  T
C911        C912   1.432       .  A
C911        C916   1.478       .  A
C911        C929   1.436       .  S
C912       C1055   1.426   1_554  A
C912        C917   1.634   1_554  S
C913       C1054   1.426       .  A
C913        C914   1.453       .  A
C913        C918   1.423       .  S
C914       C1057   1.432       .  A
C914        C930   1.441       .  S
C915       C1056   1.432       .  A
C915        C916   1.445   1_556  A
C916        C919   1.439       .  S
C917       C1062   1.408       .  A
C917        C924   1.451   1_556  A
C918        N935   1.150       .  T
C919        N937   1.157       .  T
C920       C1059   1.408       .  A
C920        C921   1.456       .  A
C920        C925   1.442       .  S
C921       C1064   1.451       .  A
C921        C927   1.437       .  S
C922       C1063   1.451       .  A
C922        C923   1.435   1_556  A
C923        C924   1.481       .  A
C923        C926   1.445       .  S
C924        C928   1.435       .  S
C925        N932   1.157       .  T
C926       N1217   1.157       .  T
C927        N931   1.156       .  T
C928        N934   1.155       .  T
C929        N938   1.156       .  T
C930        N936   1.158       .  T
N933       C1494   1.157   1_545  T
C939        C940   1.392       .  A
C939        C944   1.372       .  A
C939        C957   1.433       .  S
C940        C941   1.382       .  A
C940        C945   1.414       .  S
C941        C942   1.363       .  A
C941        C946   1.437   1_655  S
C942        C943   1.438       .  A
C942        C958   1.451       .  S
C943        C944   1.431       .  A
C944        C947   1.456       .  S
C945        C948   1.384       .  A
C947        N965   1.156       .  T
C948        C953   1.447       .  S
C949        C950   1.413       .  A
C949        C955   1.433       .  S
C950        C951   1.413       .  A
C951        C952   1.369       .  A
C951        C954   1.451       .  S
C952        C956   1.452       .  S
C953        N960   1.156       .  T
C954        N961   1.156       .  T
C955       N1243   1.149       .  T
C956        N962   1.154       .  T
C957        N966   1.145       .  T
C958        N964   1.159       .  T
N959       C1523   1.149   1_545  T
C967        C968   1.434       .  A
C967        C972   1.477       .  A
C967        C985   1.436       .  S
C968        C969   1.428       .  A
C968        C973   1.640       .  S
C969        C970   1.459       .  A
C969        C974   1.425       .  S
C970        C971   1.436       .  A
C970        C986   1.439       .  S
C971        C972   1.447       .  A
C972        C975   1.439       .  S
C973        C976   1.410       .  A
C973        C980   1.457       .  A
C974        N991   1.150       .  T
C975        N993   1.157       .  T
C976        C977   1.458       .  A
C976        C981   1.444       .  S
C977        C978   1.451       .  A
C977        C983   1.434       .  S
C978        C979   1.431       .  A
C979        C980   1.481       .  A
C979        C982   1.446       .  S
C980        C984   1.432       .  S
C981        N988   1.158       .  T
C982       N1273   1.157       .  T
C983        N987   1.156       .  T
C984        N990   1.155       .  T
C985        N994   1.156       .  T
C986        N992   1.157       .  T
N989       C1550   1.157   1_545  T
C995       C1003   1.599       .  S
C995       C1016   1.599       .  S
C995       C1085   1.520       .  S
C995       C1113   1.679       .  S
C996       C1286   1.618       .  S
C996       C1297   1.626       .  S
C996       C1092   1.519       .  S
C996       C1120   1.687       .  S
C997       C1020   1.601       .  S
C997       C1029   1.519       .  S
C997       C1057   1.668       .  S
C998       C1142   1.620       .  S
C998       C1299   1.627       .  S
C998       C1036   1.518       .  S
C998       C1064   1.689       .  S
O999       C1286   1.280       .  A
C1000      C1424   1.620   1_546  S
C1000      O1009   1.268       .  A
C1000      O1573   1.280   1_545  A
O1001      C1007   1.271       .  A
C1002      C1564   1.618   1_545  S
C1002      O1567   1.280   1_545  A
C1002      O1010   1.268       .  A
C1003      O1008   1.270       .  A
C1003      O1006   1.269       .  A
Cd1004     O1009   2.692       .  S
Cd1004     O1573   2.601   1_545  S
Cd1004     O1008   2.551       .  S
Cd1004     O1006   2.811       .  S
O1005      C1284   1.280       .  A
O1005     Cd1288   2.601       .  S
C1007      O1011   1.269       .  A
O1012      C1299   1.290       .  A
O1012     Cd1301   2.696       .  S
C1013      C1564   1.626   1_545  S
C1013      O1022   1.269       .  A
C1013      O1586   1.290   1_545  A
O1014      C1020   1.274       .  A
C1015      C1566   1.627   1_545  S
C1015      O1580   1.290   1_545  A
C1015      O1023   1.267       .  A
C1016      O1021   1.274       .  A
C1016      O1019   1.267       .  A
Cd1017     O1580   2.696   1_545  S
Cd1017     O1023   2.688       .  S
Cd1017     O1021   2.523       .  S
Cd1017     O1019   2.756       .  S
O1018      C1297   1.290       .  A
C1020      O1024   1.268       .  A
C1025      C1030   1.356       .  A
C1026      C1027   1.390       .  A
C1027      C1028   1.374       .  A
C1027      C1032   1.436       .  S
C1028      C1029   1.437       .  A
C1028      C1044   1.453       .  S
C1030      C1033   1.453       .  S
C1031      C1034   1.399       .  A
C1032      N1049   1.146       .  T
C1033      N1051   1.159       .  T
C1034      C1035   1.366       .  A
C1034      C1039   1.453       .  S
C1035      C1036   1.419       .  A
C1035      C1041   1.449       .  S
C1037      C1038   1.373   1_655  A
C1037      C1040   1.433   1_655  S
C1039      N1046   1.155       .  T
C1040      N1331   1.149       .  T
C1041      N1045   1.156       .  T
C1042      N1048   1.156       .  T
C1043      N1052   1.150       .  T
C1044      N1050   1.156       .  T
N1047      C1608   1.149   1_545  T
C1053      C1054   1.432       .  A
C1053      C1058   1.478       .  A
C1053      C1071   1.436       .  S
C1054      C1059   1.634       .  S
C1055      C1056   1.453       .  A
C1055      C1060   1.424       .  S
C1056      C1072   1.441       .  S
C1057      C1058   1.445       .  A
C1058      C1061   1.439       .  S
C1059      C1066   1.451       .  A
C1060      N1077   1.150       .  T
C1061      N1079   1.157       .  T
C1062      C1063   1.456       .  A
C1062      C1067   1.442       .  S
C1063      C1069   1.437       .  S
C1064      C1065   1.435       .  A
C1065      C1066   1.481       .  A
C1065      C1068   1.445       .  S
C1066      C1070   1.435       .  S
C1067      N1074   1.157       .  T
C1068      N1359   1.157       .  T
C1069      N1073   1.156       .  T
C1070      N1076   1.155       .  T
C1071      N1080   1.156       .  T
C1072      N1078   1.158       .  T
N1075      C1636   1.157   1_545  T
C1081      C1082   1.392       .  A
C1081      C1086   1.372       .  A
C1081      C1099   1.433       .  S
C1082      C1083   1.382       .  A
C1082      C1087   1.414       .  S
C1083      C1084   1.363       .  A
C1083      C1088   1.437   1_655  S
C1084      C1085   1.438       .  A
C1084      C1100   1.451       .  S
C1085      C1086   1.431       .  A
C1086      C1089   1.456       .  S
C1087      C1090   1.384       .  A
C1089      N1107   1.156       .  T
C1090      C1095   1.447       .  S
C1091      C1092   1.413       .  A
C1091      C1097   1.433       .  S
C1092      C1093   1.413       .  A
C1093      C1094   1.369       .  A
C1093      C1096   1.451       .  S
C1094      C1098   1.452       .  S
C1095      N1102   1.156       .  T
C1096      N1103   1.156       .  T
C1097      N1385   1.149       .  T
C1098      N1104   1.154       .  T
C1099      N1108   1.145       .  T
C1100      N1106   1.159       .  T
N1101      C1665   1.149   1_545  T
C1109      C1110   1.434       .  A
C1109      C1114   1.477       .  A
C1109      C1127   1.436       .  S
C1110      C1111   1.428       .  A
C1110      C1115   1.640       .  S
C1111      C1112   1.459       .  A
C1111      C1116   1.425       .  S
C1112      C1113   1.436       .  A
C1112      C1128   1.439       .  S
C1113      C1114   1.447       .  A
C1114      C1117   1.439       .  S
C1115      C1118   1.410       .  A
C1115      C1122   1.457       .  A
C1116      N1133   1.150       .  T
C1117      N1135   1.157       .  T
C1118      C1119   1.458       .  A
C1118      C1123   1.444       .  S
C1119      C1120   1.451       .  A
C1119      C1125   1.434       .  S
C1120      C1121   1.431       .  A
C1121      C1122   1.481       .  A
C1121      C1124   1.446       .  S
C1122      C1126   1.432       .  S
C1123      N1130   1.158       .  T
C1124      N1415   1.157       .  T
C1125      N1129   1.156       .  T
C1126      N1132   1.155       .  T
C1127      N1136   1.156       .  T
C1128      N1134   1.157       .  T
N1131      C1692   1.157   1_545  T
C1137      C1145   1.599       .  S
C1137      C1158   1.599       .  S
C1137      C1227   1.520       .  S
C1137      C1255   1.679       .  S
C1138      C1428   1.618       .  S
C1138      C1439   1.626       .  S
C1138      C1234   1.519       .  S
C1138      C1262   1.687       .  S
C1139      C1291   1.599   1_554  S
C1139      C1162   1.601       .  S
C1139      C1171   1.519       .  S
C1139      C1199   1.668   1_554  S
C1140      C1568   1.620   1_554  S
C1140      C1441   1.627       .  S
C1140      C1178   1.518       .  S
C1140      C1206   1.689   1_554  S
O1141      C1428   1.280       .  A
C1142      O1151   1.268       .  A
O1143      C1149   1.271       .  A
C1144      O1152   1.268       .  A
C1145      O1150   1.271       .  A
C1145      O1148   1.269       .  A
Cd1146     O1151   2.693       .  S
Cd1146     O1150   2.551       .  S
Cd1146     O1148   2.810       .  S
O1147      C1426   1.280       .  A
O1147     Cd1430   2.601       .  S
C1149      C1281   1.599       .  S
C1149      O1153   1.268       .  A
O1154      C1441   1.290       .  A
O1154     Cd1443   2.696       .  S
C1155      O1164   1.268       .  A
O1156      C1162   1.274       .  A
C1157      O1165   1.267       .  A
C1158      O1163   1.274       .  A
C1158      O1161   1.267       .  A
Cd1159     O1165   2.688       .  S
Cd1159     O1163   2.523       .  S
Cd1159     O1161   2.756       .  S
O1160      C1439   1.290       .  A
C1162      O1166   1.268       .  A
C1167      C1310   1.375       .  A
C1167      C1172   1.356       .  A
C1168      C1309   1.375       .  A
C1168      C1169   1.390   1_556  A
C1169      C1170   1.374       .  A
C1169      C1174   1.436       .  S
C1170      C1171   1.437       .  A
C1170      C1186   1.453       .  S
C1171      C1314   1.436   1_554  A
C1172      C1313   1.436       .  A
C1172      C1175   1.453       .  S
C1173      C1176   1.399       .  A
C1173      C1322   1.384   1_654  A
C1174      N1191   1.147       .  T
C1175      N1193   1.159       .  T
C1176      C1177   1.366       .  A
C1176      C1181   1.453       .  S
C1177      C1178   1.419       .  A
C1177      C1183   1.449       .  S
C1178      C1321   1.412   1_554  A
C1179      C1320   1.412       .  A
C1179      C1180   1.373   1_655  A
C1179      C1182   1.433   1_655  S
C1180      C1315   1.384   1_455  A
C1181      N1188   1.155       .  T
C1182      N1473   1.149       .  T
C1183      N1187   1.156       .  T
C1184      N1190   1.156       .  T
C1185      N1194   1.150       .  T
C1186      N1192   1.156       .  T
C1195      C1196   1.432       .  A
C1195      C1200   1.478       .  A
C1195      C1213   1.436       .  S
C1196      C1339   1.425   1_554  A
C1196      C1201   1.634   1_554  S
C1197      C1338   1.425       .  A
C1197      C1198   1.453       .  A
C1197      C1202   1.424       .  S
C1198      C1341   1.432       .  A
C1198      C1214   1.441       .  S
C1199      C1340   1.432       .  A
C1199      C1200   1.445   1_556  A
C1200      C1203   1.439       .  S
C1201      C1346   1.408       .  A
C1201      C1208   1.451   1_556  A
C1202      N1219   1.150       .  T
C1203      N1221   1.157       .  T
C1204      C1343   1.408       .  A
C1204      C1205   1.456       .  A
C1204      C1209   1.442       .  S
C1205      C1348   1.451       .  A
C1205      C1211   1.437       .  S
C1206      C1347   1.451       .  A
C1206      C1207   1.435   1_556  A
C1207      C1208   1.481       .  A
C1207      C1210   1.445       .  S
C1208      C1212   1.435       .  S
C1209      N1216   1.157       .  T
C1210      N1501   1.157       .  T
C1211      N1215   1.156       .  T
C1212      N1218   1.155       .  T
C1213      N1222   1.156       .  T
C1214      N1220   1.158       .  T
C1223      C1224   1.392       .  A
C1223      C1228   1.372       .  A
C1223      C1241   1.433       .  S
C1224      C1225   1.383       .  A
C1224      C1229   1.414       .  S
C1225      C1226   1.363       .  A
C1225      C1230   1.437   1_655  S
C1226      C1227   1.438       .  A
C1226      C1242   1.451       .  S
C1227      C1228   1.431       .  A
C1228      C1231   1.456       .  S
C1229      C1232   1.384       .  A
C1231      N1249   1.156       .  T
C1232      C1237   1.447       .  S
C1233      C1234   1.413       .  A
C1233      C1239   1.433       .  S
C1234      C1235   1.413       .  A
C1235      C1236   1.369       .  A
C1235      C1238   1.451       .  S
C1236      C1240   1.452       .  S
C1237      N1244   1.156       .  T
C1238      N1245   1.156       .  T
C1239      N1527   1.149       .  T
C1240      N1246   1.154       .  T
C1241      N1250   1.145       .  T
C1242      N1248   1.159       .  T
C1251      C1252   1.434       .  A
C1251      C1256   1.477       .  A
C1251      C1269   1.436       .  S
C1252      C1253   1.428       .  A
C1252      C1257   1.640       .  S
C1253      C1254   1.459       .  A
C1253      C1258   1.425       .  S
C1254      C1255   1.436       .  A
C1254      C1270   1.439       .  S
C1255      C1256   1.447       .  A
C1256      C1259   1.439       .  S
C1257      C1260   1.410       .  A
C1257      C1264   1.457       .  A
C1258      N1275   1.150       .  T
C1259      N1277   1.157       .  T
C1260      C1261   1.458       .  A
C1260      C1265   1.444       .  S
C1261      C1262   1.451       .  A
C1261      C1267   1.434       .  S
C1262      C1263   1.431       .  A
C1263      C1264   1.481       .  A
C1263      C1266   1.446       .  S
C1264      C1268   1.432       .  S
C1265      N1272   1.158       .  T
C1266      N1557   1.157       .  T
C1267      N1271   1.156       .  T
C1268      N1274   1.155       .  T
C1269      N1278   1.156       .  T
C1270      N1276   1.157       .  T
C1279      C1287   1.599       .  S
C1279      C1300   1.599       .  S
C1279      C1369   1.520       .  S
C1279      C1397   1.679       .  S
C1280      C1570   1.618       .  S
C1280      C1581   1.626       .  S
C1280      C1376   1.519       .  S
C1280      C1404   1.687       .  S
C1281      C1304   1.601       .  S
C1281      C1313   1.519       .  S
C1281      C1341   1.668       .  S
C1282      C1426   1.620       .  S
C1282      C1583   1.627       .  S
C1282      C1320   1.518       .  S
C1282      C1348   1.689       .  S
O1283      C1570   1.280       .  A
C1284      O1293   1.268       .  A
O1285      C1291   1.271       .  A
C1286      O1294   1.268       .  A
C1287      O1292   1.270       .  A
C1287      O1290   1.269       .  A
Cd1288     O1293   2.692       .  S
Cd1288     O1292   2.551       .  S
Cd1288     O1290   2.811       .  S
O1289      C1568   1.280       .  A
O1289     Cd1572   2.601       .  S
C1291      O1295   1.268       .  A
O1296      C1583   1.290       .  A
O1296     Cd1585   2.696       .  S
C1297      O1306   1.268       .  A
O1298      C1304   1.274       .  A
C1299      O1307   1.267       .  A
C1300      O1305   1.274       .  A
C1300      O1303   1.267       .  A
Cd1301     O1307   2.688       .  S
Cd1301     O1305   2.523       .  S
Cd1301     O1303   2.756       .  S
O1302      C1581   1.290       .  A
C1304      O1308   1.268       .  A
C1309      C1314   1.356       .  A
C1310      C1311   1.390       .  A
C1311      C1312   1.374       .  A
C1311      C1316   1.436       .  S
C1312      C1313   1.437       .  A
C1312      C1328   1.453       .  S
C1314      C1317   1.453       .  S
C1315      C1318   1.399       .  A
C1316      N1333   1.147       .  T
C1317      N1335   1.159       .  T
C1318      C1319   1.366       .  A
C1318      C1323   1.453       .  S
C1319      C1320   1.419       .  A
C1319      C1325   1.449       .  S
C1321      C1322   1.373   1_655  A
C1321      C1324   1.433   1_655  S
C1323      N1330   1.155       .  T
C1324      N1615   1.149       .  T
C1325      N1329   1.156       .  T
C1326      N1332   1.156       .  T
C1327      N1336   1.150       .  T
C1328      N1334   1.156       .  T
C1337      C1338   1.432       .  A
C1337      C1342   1.478       .  A
C1337      C1355   1.436       .  S
C1338      C1343   1.634       .  S
C1339      C1340   1.453       .  A
C1339      C1344   1.424       .  S
C1340      C1356   1.441       .  S
C1341      C1342   1.445       .  A
C1342      C1345   1.439       .  S
C1343      C1350   1.451       .  A
C1344      N1361   1.150       .  T
C1345      N1363   1.157       .  T
C1346      C1347   1.456       .  A
C1346      C1351   1.442       .  S
C1347      C1353   1.437       .  S
C1348      C1349   1.435       .  A
C1349      C1350   1.481       .  A
C1349      C1352   1.445       .  S
C1350      C1354   1.435       .  S
C1351      N1358   1.157       .  T
C1352      N1643   1.157       .  T
C1353      N1357   1.156       .  T
C1354      N1360   1.155       .  T
C1355      N1364   1.156       .  T
C1356      N1362   1.158       .  T
C1365      C1366   1.392       .  A
C1365      C1370   1.372       .  A
C1365      C1383   1.433       .  S
C1366      C1367   1.383       .  A
C1366      C1371   1.414       .  S
C1367      C1368   1.363       .  A
C1367      C1372   1.437   1_655  S
C1368      C1369   1.438       .  A
C1368      C1384   1.451       .  S
C1369      C1370   1.431       .  A
C1370      C1373   1.456       .  S
C1371      C1374   1.384       .  A
C1373      N1391   1.156       .  T
C1374      C1379   1.447       .  S
C1375      C1376   1.413       .  A
C1375      C1381   1.433       .  S
C1376      C1377   1.413       .  A
C1377      C1378   1.369       .  A
C1377      C1380   1.451       .  S
C1378      C1382   1.452       .  S
C1379      N1386   1.156       .  T
C1380      N1387   1.156       .  T
C1381      N1669   1.149       .  T
C1382      N1388   1.154       .  T
C1383      N1392   1.145       .  T
C1384      N1390   1.159       .  T
C1393      C1394   1.434       .  A
C1393      C1398   1.477       .  A
C1393      C1411   1.436       .  S
C1394      C1395   1.428       .  A
C1394      C1399   1.640       .  S
C1395      C1396   1.459       .  A
C1395      C1400   1.425       .  S
C1396      C1397   1.436       .  A
C1396      C1412   1.439       .  S
C1397      C1398   1.447       .  A
C1398      C1401   1.439       .  S
C1399      C1402   1.410       .  A
C1399      C1406   1.457       .  A
C1400      N1417   1.150       .  T
C1401      N1419   1.157       .  T
C1402      C1403   1.458       .  A
C1402      C1407   1.444       .  S
C1403      C1404   1.451       .  A
C1403      C1409   1.434       .  S
C1404      C1405   1.431       .  A
C1405      C1406   1.481       .  A
C1405      C1408   1.446       .  S
C1406      C1410   1.432       .  S
C1407      N1414   1.158       .  T
C1408      N1699   1.157       .  T
C1409      N1413   1.156       .  T
C1410      N1416   1.155       .  T
C1411      N1420   1.156       .  T
C1412      N1418   1.157       .  T
C1421      C1429   1.599       .  S
C1421      C1442   1.599       .  S
C1421      C1511   1.520       .  S
C1421      C1539   1.679       .  S
C1422      C1518   1.519       .  S
C1422      C1546   1.687       .  S
C1423      C1575   1.599   1_554  S
C1423      C1446   1.601       .  S
C1423      C1455   1.519       .  S
C1423      C1483   1.668   1_554  S
C1424      C1462   1.518       .  S
C1424      C1490   1.689   1_554  S
C1426      O1435   1.268       .  A
O1427      C1433   1.271       .  A
C1428      O1436   1.268       .  A
C1429      O1434   1.270       .  A
C1429      O1432   1.269       .  A
Cd1430     O1435   2.693       .  S
Cd1430     O1434   2.551       .  S
Cd1430     O1432   2.810       .  S
C1433      C1565   1.599       .  S
C1433      O1437   1.268       .  A
C1439      O1448   1.269       .  A
O1440      C1446   1.274       .  A
C1441      O1449   1.267       .  A
C1442      O1447   1.274       .  A
C1442      O1445   1.267       .  A
Cd1443     O1449   2.688       .  S
Cd1443     O1447   2.523       .  S
Cd1443     O1445   2.756       .  S
C1446      O1450   1.268       .  A
C1451      C1594   1.375       .  A
C1451      C1456   1.356       .  A
C1452      C1593   1.375       .  A
C1452      C1453   1.390   1_556  A
C1453      C1454   1.374       .  A
C1453      C1458   1.436       .  S
C1454      C1455   1.437       .  A
C1454      C1470   1.453       .  S
C1455      C1598   1.436   1_554  A
C1456      C1597   1.436       .  A
C1456      C1459   1.453       .  S
C1457      C1460   1.399       .  A
C1457      C1606   1.384   1_654  A
C1458      N1475   1.147       .  T
C1459      N1477   1.159       .  T
C1460      C1461   1.366       .  A
C1460      C1465   1.453       .  S
C1461      C1462   1.419       .  A
C1461      C1467   1.449       .  S
C1462      C1605   1.412   1_554  A
C1463      C1604   1.412       .  A
C1463      C1464   1.373   1_655  A
C1463      C1466   1.433   1_655  S
C1464      C1599   1.384   1_455  A
C1465      N1472   1.155       .  T
C1467      N1471   1.156       .  T
C1468      N1474   1.156       .  T
C1469      N1478   1.150       .  T
C1470      N1476   1.156       .  T
C1479      C1480   1.432       .  A
C1479      C1484   1.478       .  A
C1479      C1497   1.436       .  S
C1480      C1623   1.425   1_554  A
C1480      C1485   1.634   1_554  S
C1481      C1622   1.426       .  A
C1481      C1482   1.453       .  A
C1481      C1486   1.423       .  S
C1482      C1625   1.432       .  A
C1482      C1498   1.441       .  S
C1483      C1624   1.432       .  A
C1483      C1484   1.445   1_556  A
C1484      C1487   1.439       .  S
C1485      C1630   1.408       .  A
C1485      C1492   1.451   1_556  A
C1486      N1503   1.150       .  T
C1487      N1505   1.157       .  T
C1488      C1627   1.408       .  A
C1488      C1489   1.456       .  A
C1488      C1493   1.442       .  S
C1489      C1632   1.451       .  A
C1489      C1495   1.437       .  S
C1490      C1631   1.451       .  A
C1490      C1491   1.435   1_556  A
C1491      C1492   1.481       .  A
C1491      C1494   1.445       .  S
C1492      C1496   1.435       .  S
C1493      N1500   1.157       .  T
C1495      N1499   1.156       .  T
C1496      N1502   1.155       .  T
C1497      N1506   1.156       .  T
C1498      N1504   1.158       .  T
C1507      C1508   1.392       .  A
C1507      C1512   1.372       .  A
C1507      C1525   1.433       .  S
C1508      C1509   1.382       .  A
C1508      C1513   1.413       .  S
C1509      C1510   1.363       .  A
C1509      C1514   1.437   1_655  S
C1510      C1511   1.438       .  A
C1510      C1526   1.451       .  S
C1511      C1512   1.431       .  A
C1512      C1515   1.456       .  S
C1513      C1516   1.384       .  A
C1515      N1533   1.156       .  T
C1516      C1521   1.447       .  S
C1517      C1518   1.413       .  A
C1517      C1523   1.433       .  S
C1518      C1519   1.413       .  A
C1519      C1520   1.369       .  A
C1519      C1522   1.451       .  S
C1520      C1524   1.452       .  S
C1521      N1528   1.156       .  T
C1522      N1529   1.156       .  T
C1524      N1530   1.154       .  T
C1525      N1534   1.145       .  T
C1526      N1532   1.159       .  T
C1535      C1536   1.434       .  A
C1535      C1540   1.477       .  A
C1535      C1553   1.436       .  S
C1536      C1537   1.428       .  A
C1536      C1541   1.640       .  S
C1537      C1538   1.459       .  A
C1537      C1542   1.425       .  S
C1538      C1539   1.437       .  A
C1538      C1554   1.439       .  S
C1539      C1540   1.447       .  A
C1540      C1543   1.439       .  S
C1541      C1544   1.410       .  A
C1541      C1548   1.457       .  A
C1542      N1559   1.150       .  T
C1543      N1561   1.157       .  T
C1544      C1545   1.458       .  A
C1544      C1549   1.444       .  S
C1545      C1546   1.451       .  A
C1545      C1551   1.434       .  S
C1546      C1547   1.431       .  A
C1547      C1548   1.481       .  A
C1547      C1550   1.446       .  S
C1548      C1552   1.432       .  S
C1549      N1556   1.158       .  T
C1551      N1555   1.156       .  T
C1552      N1558   1.155       .  T
C1553      N1562   1.156       .  T
C1554      N1560   1.157       .  T
C1563      C1571   1.599       .  S
C1563      C1584   1.599       .  S
C1563      C1653   1.520       .  S
C1563      C1681   1.679       .  S
C1564      C1660   1.519       .  S
C1564      C1688   1.687       .  S
C1565      C1588   1.601       .  S
C1565      C1597   1.519       .  S
C1565      C1625   1.668       .  S
C1566      C1604   1.518       .  S
C1566      C1632   1.689       .  S
C1568      O1577   1.268       .  A
O1569      C1575   1.271       .  A
C1570      O1578   1.268       .  A
C1571      O1576   1.270       .  A
C1571      O1574   1.269       .  A
Cd1572     O1577   2.692       .  S
Cd1572     O1576   2.551       .  S
Cd1572     O1574   2.811       .  S
C1575      O1579   1.268       .  A
C1581      O1590   1.268       .  A
O1582      C1588   1.274       .  A
C1583      O1591   1.267       .  A
C1584      O1589   1.274       .  A
C1584      O1587   1.267       .  A
Cd1585     O1591   2.688       .  S
Cd1585     O1589   2.523       .  S
Cd1585     O1587   2.756       .  S
C1588      O1592   1.268       .  A
C1593      C1598   1.356       .  A
C1594      C1595   1.390       .  A
C1595      C1596   1.374       .  A
C1595      C1600   1.436       .  S
C1596      C1597   1.437       .  A
C1596      C1612   1.453       .  S
C1598      C1601   1.453       .  S
C1599      C1602   1.399       .  A
C1600      N1617   1.146       .  T
C1601      N1619   1.159       .  T
C1602      C1603   1.366       .  A
C1602      C1607   1.453       .  S
C1603      C1604   1.419       .  A
C1603      C1609   1.449       .  S
C1605      C1606   1.373   1_655  A
C1605      C1608   1.433   1_655  S
C1607      N1614   1.155       .  T
C1609      N1613   1.156       .  T
C1610      N1616   1.156       .  T
C1611      N1620   1.150       .  T
C1612      N1618   1.156       .  T
C1621      C1622   1.432       .  A
C1621      C1626   1.478       .  A
C1621      C1639   1.436       .  S
C1622      C1627   1.634       .  S
C1623      C1624   1.453       .  A
C1623      C1628   1.424       .  S
C1624      C1640   1.441       .  S
C1625      C1626   1.445       .  A
C1626      C1629   1.439       .  S
C1627      C1634   1.451       .  A
C1628      N1645   1.150       .  T
C1629      N1647   1.157       .  T
C1630      C1631   1.456       .  A
C1630      C1635   1.442       .  S
C1631      C1637   1.437       .  S
C1632      C1633   1.435       .  A
C1633      C1634   1.481       .  A
C1633      C1636   1.445       .  S
C1634      C1638   1.435       .  S
C1635      N1642   1.157       .  T
C1637      N1641   1.156       .  T
C1638      N1644   1.155       .  T
C1639      N1648   1.156       .  T
C1640      N1646   1.158       .  T
C1649      C1650   1.392       .  A
C1649      C1654   1.372       .  A
C1649      C1667   1.433       .  S
C1650      C1651   1.383       .  A
C1650      C1655   1.414       .  S
C1651      C1652   1.363       .  A
C1651      C1656   1.437   1_655  S
C1652      C1653   1.438       .  A
C1652      C1668   1.451       .  S
C1653      C1654   1.431       .  A
C1654      C1657   1.456       .  S
C1655      C1658   1.384       .  A
C1657      N1675   1.156       .  T
C1658      C1663   1.447       .  S
C1659      C1660   1.413       .  A
C1659      C1665   1.433       .  S
C1660      C1661   1.413       .  A
C1661      C1662   1.369       .  A
C1661      C1664   1.451       .  S
C1662      C1666   1.452       .  S
C1663      N1670   1.156       .  T
C1664      N1671   1.156       .  T
C1666      N1672   1.154       .  T
C1667      N1676   1.145       .  T
C1668      N1674   1.159       .  T
C1677      C1678   1.434       .  A
C1677      C1682   1.477       .  A
C1677      C1695   1.436       .  S
C1678      C1679   1.428       .  A
C1678      C1683   1.640       .  S
C1679      C1680   1.459       .  A
C1679      C1684   1.425       .  S
C1680      C1681   1.436       .  A
C1680      C1696   1.439       .  S
C1681      C1682   1.447       .  A
C1682      C1685   1.439       .  S
C1683      C1686   1.410       .  A
C1683      C1690   1.457       .  A
C1684      N1701   1.150       .  T
C1685      N1703   1.157       .  T
C1686      C1687   1.458       .  A
C1686      C1691   1.444       .  S
C1687      C1688   1.451       .  A
C1687      C1693   1.434       .  S
C1688      C1689   1.431       .  A
C1689      C1690   1.481       .  A
C1689      C1692   1.446       .  S
C1690      C1694   1.432       .  S
C1691      N1698   1.158       .  T
C1693      N1697   1.156       .  T
C1694      N1700   1.155       .  T
C1695      N1704   1.156       .  T
C1696      N1702   1.157       .  T
