geometry optimzed in LAMMPS
_audit_creation_date              2020-11-30 
_audit_creation_method            'lammps2cif' 
_symmetry_space_group_name_H-M    'P1' 
_symmetry_Int_Tables_number       1 
_symmetry_cell_setting            triclinic 
loop_ 
_symmetry_equiv_pos_as_xyz 
  x,y,z 
_cell_length_a                    65.9590061 
_cell_length_b                    66.1944343257598 
_cell_length_c                    25.67219089313394 
_cell_angle_alpha                 89.93338514988106 
_cell_angle_beta                  89.80670889750827 
_cell_angle_gamma                 120.96375090605822 
loop_ 
_atom_site_label 
_atom_site_type_symbol 
_atom_site_fract_x 
_atom_site_fract_y 
_atom_site_fract_z 
_atom_site_charge 
C1          C  0.52059571  0.57900897  0.65133826    -0.02800
C2          C  0.50730871  0.57889477  0.41549467    -0.02800
C3          C  0.56792725  0.52568536  0.63489952    -0.02800
C4          C  0.56869770  0.53452342  0.39683830    -0.02800
C5          C  0.42748108  0.48568651  0.66345532    -0.02800
C6          C  0.42526368  0.48632307  0.42611609    -0.02800
C7          C  0.47387072  0.43244332  0.63920553    -0.02800
C8          C  0.48393542  0.43972050  0.40831792    -0.02800
C9          C  0.94732025  0.52966112  0.63391931    -0.02800
C10         C  0.94398527  0.53085978  0.39898761    -0.02800
C11         C  0.04982239  0.57678900  0.63554313    -0.02800
C12         C  0.04523453  0.57627559  0.40120814    -0.02800
C13         C  0.94883179  0.43929932  0.64458882    -0.02800
C14         C  0.94174319  0.43785172  0.41032416    -0.02800
C15         C  0.05024227  0.48496165  0.63924072    -0.02800
C16         C  0.04438847  0.48468747  0.40537144    -0.02800
In17       In  0.48933346  0.67437834  0.23495533     1.36900
C18         C  0.44688388  0.63474944  0.23489550     0.77300
O19         O  0.47960465  0.67932426  0.15566098    -0.61200
O20         O  0.51387775  0.68428887  0.16552425    -0.52100
C21         C  0.49446169  0.71588042  0.26278271     0.70000
O22         O  0.47498422  0.69671712  0.26129683    -0.46900
C23         C  0.50739293  0.65510444  0.29625120     0.74700
O24         O  0.45277653  0.65046570  0.26910003    -0.58800
O25         O  0.51058890  0.65657697  0.24764055    -0.48900
O26         O  0.46243308  0.63988149  0.20049170    -0.55200
C27         C  0.49885537  0.68407246  0.13456701     0.84800
O28         O  0.51201593  0.71364046  0.25294259    -0.57100
O29         O  0.49859805  0.66678754  0.31333306    -0.60400
In30       In  0.49514699  0.84204570  0.23282753     1.36900
C31         C  0.45079016  0.83308905  0.23447366     0.77300
O32         O  0.51663618  0.86630077  0.29825007    -0.61200
O33         O  0.50716607  0.88053294  0.23573736    -0.52100
C34         C  0.49984174  0.80625318  0.26625562     0.70000
O35         O  0.48136414  0.80717688  0.27265618    -0.46900
C36         C  0.50627719  0.84173916  0.13402217     0.74700
O37         O  0.46123896  0.83280645  0.27535334    -0.58800
O38         O  0.51939140  0.85882546  0.16342404    -0.48900
O39         O  0.46291583  0.83732470  0.19359805    -0.55200
C40         C  0.51666069  0.88401936  0.27974976     0.84800
O41         O  0.51695671  0.82496717  0.24761944    -0.57100
O42         O  0.48828833  0.82514410  0.15596575    -0.60400
In43       In  0.49222608  0.67023906  0.81144655     1.36900
C44         C  0.44776599  0.63355618  0.80631015     0.77300
O45         O  0.51260350  0.66460869  0.74704709    -0.61200
O46         O  0.50690573  0.64657460  0.81844959    -0.52100
C47         C  0.50037861  0.71218220  0.77898575     0.70000
O48         O  0.48132887  0.69319937  0.76986875    -0.46900
C49         C  0.50089103  0.68146912  0.91123524     0.74700
O50         O  0.45984219  0.64350458  0.76595027    -0.58800
O51         O  0.51476891  0.67830962  0.88307129    -0.48900
O52         O  0.45822606  0.64300665  0.84810297    -0.55200
C53         C  0.51454665  0.64932546  0.77252354     0.84800
O54         O  0.51620644  0.70928851  0.79859271    -0.57100
O55         O  0.48317568  0.67935612  0.88759022    -0.60400
In56       In  0.49164876  0.83305839  0.81375250     1.36900
C57         C  0.44746784  0.82348771  0.80279708     0.77300
O58         O  0.48417534  0.81982447  0.89454800    -0.61200
O59         O  0.51736660  0.85084817  0.87958652    -0.52100
C60         C  0.49863465  0.79842066  0.78320947     0.70000
O61         O  0.47877533  0.79680343  0.78247247    -0.46900
C62         C  0.51067075  0.87492485  0.76752520     0.74700
O63         O  0.46035412  0.82539898  0.76442972    -0.58800
O64         O  0.50332049  0.87128718  0.81379726    -0.48900
O65         O  0.45690087  0.82537054  0.84653429    -0.55200
C66         C  0.50356393  0.83589174  0.91264749     0.84800
O67         O  0.51543024  0.81849416  0.79618347    -0.57100
O68         O  0.51033570  0.85749158  0.74643138    -0.60400
In69       In  0.16730035  0.50841641  0.24356065     1.36900
C70         C  0.17810673  0.55316791  0.24770313     0.77300
O71         O  0.18225989  0.51412270  0.16327385    -0.61200
O72         O  0.14886172  0.48333238  0.17697935    -0.52100
C73         C  0.20047073  0.49929376  0.27527568     0.70000
O74         O  0.20295345  0.51946058  0.27778160    -0.46900
C75         C  0.12575765  0.49053222  0.29365241     0.74700
O76         O  0.17814839  0.54208402  0.28765842    -0.58800
O77         O  0.12855910  0.49624721  0.24624572    -0.48900
O78         O  0.17373366  0.54165573  0.20606745    -0.55200
C79         C  0.16503497  0.49567250  0.14447902     0.84800
O80         O  0.18029450  0.48341831  0.26012274    -0.57100
O81         O  0.14383215  0.49202429  0.31427823    -0.60400
In82       In  0.32551072  0.49789662  0.25061413     1.36900
C83         C  0.36184343  0.54234795  0.24721874     0.77300
O84         O  0.33246673  0.48395281  0.32587580    -0.61200
O85         O  0.34865285  0.48211654  0.25698862    -0.52100
C86         C  0.28379231  0.49174481  0.28033756     0.70000
O87         O  0.30319810  0.51062713  0.28728035    -0.46900
C88         C  0.31359877  0.48702878  0.15094242     0.74700
O89         O  0.34716186  0.53462894  0.28433641    -0.58800
O90         O  0.31550071  0.47309996  0.18158100    -0.48900
O91         O  0.35760947  0.52734216  0.21236643    -0.55200
C92         C  0.34727015  0.47958069  0.30561540     0.84800
O93         O  0.28591686  0.47498865  0.26342462    -0.57100
O94         O  0.31735859  0.50585694  0.17186372    -0.60400
In95       In  0.16306523  0.50134273  0.82135986     1.36900
C96         C  0.17325714  0.54596193  0.81637686     0.77300
O97         O  0.14098165  0.48637394  0.74900804    -0.61200
O98         O  0.12408392  0.48731712  0.81805616    -0.52100
C99         C  0.19613326  0.49226870  0.78961925     0.70000
O100        O  0.19835147  0.51231942  0.78722787    -0.46900
C101        C  0.16356109  0.49158213  0.92152576     0.74700
O102        O  0.17601238  0.53574014  0.77796992    -0.58800
O103        O  0.14657803  0.47793683  0.89221667    -0.48900
O104        O  0.16609608  0.53353434  0.85702381    -0.55200
C105        C  0.12237840  0.48369422  0.76977185     0.84800
O106        O  0.17599250  0.47611566  0.80498329    -0.57100
O107        O  0.17996998  0.50950938  0.89893954    -0.60400
In108      In  0.32431164  0.49908076  0.82732502     1.36900
C109        C  0.36010477  0.54373648  0.81873335     0.77300
O110        O  0.31719042  0.50685033  0.90747390    -0.61200
O111        O  0.31556114  0.47427624  0.89571159    -0.52100
C112        C  0.28209769  0.49058632  0.79465825     0.70000
O113        O  0.30053502  0.51069748  0.79450669    -0.46900
C114        C  0.34761786  0.48209128  0.77658950     0.74700
O115        O  0.34801410  0.53197975  0.78022750    -0.58800
O116        O  0.34911078  0.48513307  0.82517381    -0.48900
O117        O  0.35336002  0.53281116  0.86144320    -0.55200
C118        C  0.31396164  0.48799142  0.92750350     0.84800
O119        O  0.28550034  0.47427019  0.80855002    -0.57100
O120        O  0.33171061  0.48449508  0.75564492    -0.60400
In121      In  0.32953223  0.84358377  0.21704856     1.36900
C122        C  0.36332978  0.83298457  0.22310608     0.77300
O123        O  0.32046883  0.82823753  0.13746234    -0.61200
O124        O  0.32123820  0.86028873  0.14914123    -0.52100
C125        C  0.28838247  0.80872508  0.25703870     0.70000
O126        O  0.30725607  0.80833086  0.25618062    -0.46900
C127        C  0.35591870  0.88632073  0.26059804     0.74700
O128        O  0.35363119  0.83555079  0.26297368    -0.58800
O129        O  0.35996899  0.88105255  0.21625417    -0.48900
O130        O  0.35488388  0.83487084  0.18069265    -0.55200
C131        C  0.31852626  0.84452413  0.11737327     0.84800
O132        O  0.29089190  0.82791462  0.24077345    -0.57100
O133        O  0.33680705  0.87032092  0.28070131    -0.60400
In134      In  0.16862087  0.67511180  0.23996698     1.36900
C135        C  0.17666020  0.63957087  0.24834916     0.77300
O136        O  0.14517664  0.66783301  0.31090729    -0.61200
O137        O  0.12937249  0.65059150  0.24054492    -0.52100
C138        C  0.20274293  0.71818884  0.27033862     0.70000
O139        O  0.20433035  0.70006166  0.27399469    -0.46900
C140        C  0.17000346  0.68438091  0.13845130     0.74700
O141        O  0.17904816  0.65263062  0.28644750    -0.58800
O142        O  0.15378328  0.68274245  0.16790227    -0.48900
O143        O  0.17090880  0.64524247  0.20659814    -0.55200
C144        C  0.12669390  0.65225748  0.28858434     0.84800
O145        O  0.18282214  0.71398324  0.25452400    -0.57100
O146        O  0.18530417  0.68168543  0.16153205    -0.60400
In147      In  0.32913863  0.83931614  0.79408288     1.36900
C148        C  0.36336902  0.82905299  0.79092463     0.77300
O149        O  0.33329846  0.86122138  0.72208459    -0.61200
O150        O  0.35594756  0.87796899  0.78568432    -0.52100
C151        C  0.28695976  0.80297117  0.76570700     0.70000
O152        O  0.30612780  0.80343940  0.75929785    -0.46900
C153        C  0.31958530  0.84208021  0.89402701     0.74700
O154        O  0.35330608  0.83039364  0.75054855    -0.58800
O155        O  0.32285166  0.85788990  0.86153645    -0.48900
O156        O  0.35556315  0.83252512  0.83263538    -0.55200
C157        C  0.35106656  0.87974363  0.73911877     0.84800
O158        O  0.28957242  0.82211673  0.78227286    -0.57100
O159        O  0.32130915  0.82555031  0.87482726    -0.60400
In160      In  0.16813670  0.67049154  0.81456081     1.36900
C161        C  0.17614393  0.63472946  0.81486642     0.77300
O162        O  0.18554924  0.68080793  0.89216157    -0.61200
O163        O  0.15297773  0.67962023  0.88376887    -0.52100
C164        C  0.20165640  0.71212471  0.77667761     0.70000
O165        O  0.20346999  0.69407208  0.77722008    -0.46900
C166        C  0.12660101  0.64747543  0.76539712     0.74700
O167        O  0.17966339  0.64729590  0.77497227    -0.58800
O168        O  0.12887321  0.64573249  0.81350922    -0.48900
O169        O  0.16922534  0.64100165  0.85394359    -0.55200
C170        C  0.16952736  0.68287281  0.91388682     0.84800
O171        O  0.18192532  0.70849388  0.79272286    -0.57100
O172        O  0.14530865  0.66288670  0.74310654    -0.60400
In173      In  0.49047951  0.33804235  0.22623385     1.36900
C174        C  0.53332775  0.37680427  0.22092197     0.77300
O175        O  0.49987898  0.33053928  0.14881821    -0.61200
O176        O  0.46591034  0.32657344  0.15722393    -0.52100
C177        C  0.48423767  0.29726398  0.26179655     0.70000
O178        O  0.50376150  0.31642893  0.26296350    -0.46900
C179        C  0.47421880  0.36006610  0.28385693     0.74700
O180        O  0.52861274  0.36017305  0.25206122    -0.58800
O181        O  0.47050756  0.35743015  0.23558985    -0.48900
O182        O  0.51644242  0.37286894  0.19160451    -0.55200
C183        C  0.48073939  0.32571238  0.12734789     0.84800
O184        O  0.46716818  0.29921648  0.24597776    -0.57100
O185        O  0.48202644  0.34781882  0.30286067    -0.60400
In186      In  0.50167573  0.18259153  0.22500069     1.36900
C187        C  0.54640269  0.19318067  0.23485455     0.77300
O188        O  0.48450782  0.15617717  0.29148610    -0.61200
O189        O  0.49032460  0.14459816  0.21927524    -0.52100
C190        C  0.49008807  0.21374811  0.25873865     0.70000
O191        O  0.51024879  0.21638763  0.26515696    -0.46900
C192        C  0.49418856  0.18268011  0.12315730     0.74700
O193        O  0.53324431  0.18976097  0.27371391    -0.58800
O194        O  0.47957647  0.16622899  0.15271109    -0.48900
O195        O  0.53729138  0.19331185  0.19201292    -0.55200
C196        C  0.48481561  0.13990792  0.26653287     0.84800
O197        O  0.47529271  0.19420223  0.23889568    -0.57100
O198        O  0.51163429  0.19906467  0.14672394    -0.60400
In199      In  0.49674176  0.33596828  0.80682261     1.36900
C200        C  0.54142245  0.37124101  0.80343714     0.77300
O201        O  0.47784348  0.34290597  0.74146609    -0.61200
O202        O  0.48703842  0.36376851  0.80912999    -0.52100
C203        C  0.49256537  0.29602814  0.77048493     0.70000
O204        O  0.51137681  0.31577465  0.76843256    -0.46900
C205        C  0.48402534  0.32357529  0.90533953     0.74700
O206        O  0.53004668  0.36104779  0.76275145    -0.58800
O207        O  0.47005743  0.32428841  0.87278763    -0.48900
O208        O  0.53005063  0.36264010  0.84512913    -0.55200
C209        C  0.47909065  0.36058387  0.76358939     0.84800
O210        O  0.47499278  0.29696916  0.78694453    -0.57100
O211        O  0.50378426  0.32863365  0.88673193    -0.60400
In212      In  0.50416131  0.17682130  0.79733821     1.36900
C213        C  0.54878753  0.18739122  0.78909892     0.77300
O214        O  0.51306558  0.19268263  0.87585319    -0.61200
O215        O  0.48003056  0.16103677  0.86821603    -0.52100
C216        C  0.49633137  0.21084227  0.76612516     0.70000
O217        O  0.51628399  0.21264802  0.76335179    -0.46900
C218        C  0.48490814  0.13539696  0.74699425     0.74700
O219        O  0.53684911  0.18662353  0.75005980    -0.58800
O220        O  0.49249006  0.13818597  0.79302072    -0.48900
O221        O  0.53809964  0.18353957  0.83199605    -0.55200
C222        C  0.49442066  0.17725364  0.89815594     0.84800
O223        O  0.47992696  0.19074946  0.78058375    -0.57100
O224        O  0.48528009  0.15328684  0.72875048    -0.60400
In225      In  0.82386019  0.34433286  0.22725856     1.36900
C226        C  0.80936627  0.37500660  0.23363130     0.77300
O227        O  0.84778391  0.34937045  0.29541685    -0.61200
O228        O  0.86148138  0.37410342  0.23387265    -0.52100
C229        C  0.79136259  0.30095140  0.25679910     0.70000
O230        O  0.78978382  0.31882092  0.26549415    -0.46900
C231        C  0.82601500  0.33640309  0.12655462     0.74700
O232        O  0.81105831  0.36472831  0.27328686    -0.58800
O233        O  0.84360168  0.34321173  0.15625725    -0.48900
O234        O  0.81430497  0.36884002  0.19148866    -0.55200
C235        C  0.86495334  0.36848396  0.27834903     0.84800
O236        O  0.81086472  0.30556039  0.23706138    -0.57100
O237        O  0.80761769  0.33324736  0.14913083    -0.60400
In238      In  0.66350949  0.17476326  0.23278619     1.36900
C239        C  0.62791157  0.18274440  0.24047588     0.77300
O240        O  0.67071060  0.19088717  0.15436431    -0.61200
O241        O  0.67185434  0.15957694  0.16313885    -0.52100
C242        C  0.70505985  0.21089192  0.26167600     0.70000
O243        O  0.68590213  0.21061567  0.26569832    -0.46900
C244        C  0.64458279  0.13402663  0.28415678     0.74700
O245        O  0.64091753  0.18506680  0.27862791    -0.58800
O246        O  0.63971323  0.13552294  0.23754595    -0.48900
O247        O  0.63290586  0.17589907  0.19927549    -0.55200
C248        C  0.67355527  0.17543135  0.13280027     0.84800
O249        O  0.70277782  0.19169436  0.24648102    -0.57100
O250        O  0.66066470  0.15325120  0.30294812    -0.60400
In251      In  0.82587659  0.34049159  0.80160969     1.36900
C252        C  0.81623231  0.37492568  0.79294391     0.77300
O253        O  0.80769163  0.33117054  0.87842437    -0.61200
O254        O  0.84229923  0.33640193  0.87417229    -0.52100
C255        C  0.79555795  0.29766341  0.76547199     0.70000
O256        O  0.79336562  0.31521282  0.75721943    -0.46900
C257        C  0.86905192  0.36444539  0.76146494     0.74700
O258        O  0.82213033  0.36727276  0.75440022    -0.58800
O259        O  0.86438619  0.36609369  0.80824720    -0.48900
O260        O  0.81381505  0.36389505  0.83457405    -0.55200
C261        C  0.82480281  0.33212348  0.90252581     0.84800
O262        O  0.81429247  0.30246913  0.78879360    -0.57100
O263        O  0.85185892  0.34845928  0.73632819    -0.60400
In264      In  0.66794399  0.17579002  0.80709282     1.36900
C265        C  0.63621621  0.18864905  0.79383732     0.77300
O266        O  0.66467079  0.14782888  0.75126836    -0.61200
O267        O  0.63677039  0.13896449  0.80431137    -0.52100
C268        C  0.71065171  0.20817818  0.77125579     0.70000
O269        O  0.69192664  0.20740662  0.75773129    -0.46900
C270        C  0.67553274  0.17649048  0.90883117     0.74700
O271        O  0.64536381  0.18405083  0.75583531    -0.58800
O272        O  0.67181088  0.15926793  0.88065126    -0.48900
O273        O  0.64417350  0.18763017  0.83760301    -0.55200
C274        C  0.64408032  0.13257045  0.76611010     0.84800
O275        O  0.70724430  0.19112733  0.79955894    -0.57100
O276        O  0.67578739  0.19311089  0.88434017    -0.60400
In277      In  0.82117131  0.50626075  0.23553247     1.36900
C278        C  0.81030328  0.46164836  0.24073098     0.77300
O279        O  0.80762124  0.49746909  0.15448327    -0.61200
O280        O  0.83815606  0.53107363  0.16755621    -0.52100
C281        C  0.78539458  0.51259852  0.26325422     0.70000
O282        O  0.78456807  0.49323458  0.26652958    -0.46900
C283        C  0.86252477  0.52479597  0.28668105     0.74700
O284        O  0.80817491  0.47205172  0.27958778    -0.58800
O285        O  0.86092540  0.52177355  0.23820546    -0.48900
O286        O  0.81789478  0.47413449  0.20024338    -0.55200
C287        C  0.82364070  0.51660512  0.13493620     0.84800
O288        O  0.80542039  0.52947630  0.24930919    -0.57100
O289        O  0.84349294  0.52075458  0.30794928    -0.60400
In290      In  0.65866360  0.51100196  0.22348233     1.36900
C291        C  0.62057850  0.46751859  0.22506882     0.77300
O292        O  0.65410185  0.52849020  0.29557343    -0.61200
O293        O  0.63702204  0.52848828  0.22660160    -0.52100
C294        C  0.69944851  0.51613305  0.25761097     0.70000
O295        O  0.67964717  0.49751877  0.26383451    -0.46900
C296        C  0.67083825  0.51926737  0.12271816     0.74700
O297        O  0.63624484  0.47467817  0.25980430    -0.58800
O298        O  0.67002340  0.53439573  0.15124162    -0.48900
O299        O  0.62464414  0.48259378  0.19036452    -0.55200
C300        C  0.63993951  0.53338082  0.27429153     0.84800
O301        O  0.69810245  0.53291237  0.23785319    -0.57100
O302        O  0.66608854  0.50062516  0.14634328    -0.60400
In303      In  0.83130970  0.50843455  0.81148054     1.36900
C304        C  0.82069490  0.46415508  0.79838629     0.77300
O305        O  0.85775710  0.53001815  0.74896049    -0.61200
O306        O  0.86933505  0.51768549  0.81145467    -0.52100
C307        C  0.79799394  0.51630402  0.77489931     0.70000
O308        O  0.79717938  0.49694745  0.77057702    -0.46900
C309        C  0.82907297  0.51721635  0.91166220     0.74700
O310        O  0.82392947  0.47775347  0.76074830    -0.58800
O311        O  0.84646484  0.53118039  0.88335172    -0.48900
O312        O  0.82175605  0.47293861  0.84255357    -0.55200
C313        C  0.87413642  0.52764139  0.76754550     0.84800
O314        O  0.81704793  0.53251176  0.79418581    -0.57100
O315        O  0.81338299  0.49922955  0.88836771    -0.60400
In316      In  0.66657408  0.50398620  0.79789951     1.36900
C317        C  0.63015687  0.45964949  0.79775906     0.77300
O318        O  0.67360135  0.49693505  0.87876378    -0.61200
O319        O  0.67313966  0.52835987  0.86645364    -0.52100
C320        C  0.70937273  0.51279391  0.76859406     0.70000
O321        O  0.69150354  0.49248565  0.77361423    -0.46900
C322        C  0.64444062  0.51969172  0.73763092     0.74700
O323        O  0.64482577  0.46807662  0.76077968    -0.58800
O324        O  0.64718708  0.52353485  0.78592255    -0.48900
O325        O  0.63457815  0.47372646  0.83486290    -0.55200
C326        C  0.67541894  0.51519439  0.89875163     0.84800
O327        O  0.70525888  0.52921140  0.77630207    -0.57100
O328        O  0.65547068  0.51038466  0.71953585    -0.60400
C329        C  0.51335657  0.95017154  0.64319385    -0.02800
C330        C  0.51981576  0.95637016  0.41071598    -0.02800
C331        C  0.56791329  0.05707382  0.64729947    -0.02800
C332        C  0.57248490  0.06208763  0.41400607    -0.02800
C333        C  0.42863982  0.95404238  0.61948047    -0.02800
C334        C  0.43293005  0.95931809  0.38596724    -0.02800
C335        C  0.48156217  0.05994742  0.62313568    -0.02800
C336        C  0.48815950  0.06646311  0.38981138    -0.02800
C337        C  0.46379456  0.05771499  0.47648605    -0.26600
C338        C  0.48553230  0.07211468  0.44981768    -0.14700
C339        C  0.50386475  0.08860045  0.48286876     0.35900
C340        C  0.50323872  0.08399245  0.53726334    -0.26100
C341        C  0.48264911  0.06654220  0.56279103    -0.15300
C342        C  0.46183983  0.05597075  0.53118046     0.37000
N343        N  0.43865250  0.04260766  0.55419965    -0.89600
H344        H  0.44798373  0.04636294  0.45453979     0.18100
H345        H  0.51880003  0.09507556  0.55912671     0.18100
N346        N  0.52114390  0.11142705  0.46367858    -0.88600
H347        H  0.42548175  0.03538607  0.52578240     0.35500
H348        H  0.43569412  0.05421452  0.57579254     0.40600
H349        H  0.51213873  0.11965687  0.45077879     0.40200
H350        H  0.53243994  0.12194342  0.49340629     0.35100
C351        C  0.43758647  0.00016655  0.35102059    -0.26600
C352        C  0.44287332  0.98701719  0.38683153    -0.14700
C353        C  0.46042051  0.00057629  0.42377717     0.35900
C354        C  0.47366869  0.02507860  0.42181535    -0.26100
C355        C  0.47029593  0.03867335  0.38473195    -0.15300
C356        C  0.45117882  0.02564936  0.34940058     0.37000
N357        N  0.44580162  0.03778391  0.31092337    -0.89600
H358        H  0.42396433  0.99082729  0.32220574     0.18100
H359        H  0.48692848  0.03389699  0.45163100     0.18100
N360        N  0.46488926  0.98922124  0.46507051    -0.88600
H361        H  0.42816824  0.03306761  0.31603964     0.35500
H362        H  0.44740842  0.03187210  0.27427461     0.40600
H363        H  0.46204526  0.99609409  0.49869654     0.40200
H364        H  0.48202655  0.99252164  0.46259179     0.35100
C365        C  0.42982872  0.99348451  0.64861591    -0.26600
C366        C  0.44009404  0.98158302  0.62410119    -0.14700
C367        C  0.46185515  0.99593711  0.59827985     0.35900
C368        C  0.47155823  0.01999343  0.59346415    -0.26100
C369        C  0.46370750  0.03243696  0.62324464    -0.15300
C370        C  0.44180510  0.01867478  0.65015039     0.37000
N371        N  0.43100149  0.02973709  0.67668406    -0.89600
H372        H  0.41257657  0.98345890  0.66664403     0.18100
H373        H  0.48788640  0.02966153  0.57144864     0.18100
N374        N  0.47645288  0.98671082  0.58462492    -0.88600
H375        H  0.42785623  0.02371880  0.71520716     0.35500
H376        H  0.41459111  0.02402410  0.65945557     0.40600
H377        H  0.48938950  0.99391939  0.61308443     0.40200
H378        H  0.48559058  0.99392772  0.55009002     0.35100
C379        C  0.43446312  0.93946048  0.52737489    -0.26600
C380        C  0.42503780  0.95039255  0.55805514    -0.14700
C381        C  0.41235374  0.95903487  0.52974067     0.35900
C382        C  0.41329515  0.96025678  0.47454109    -0.26100
C383        C  0.42390314  0.95014966  0.44441779    -0.15300
C384        C  0.42949583  0.93539796  0.47355997     0.37000
N385        N  0.42371466  0.91290679  0.45313269    -0.89600
H386        H  0.44403256  0.93206480  0.54453237     0.18100
H387        H  0.40658104  0.97018635  0.45526110     0.18100
N388        N  0.39940246  0.96774810  0.55681338    -0.88600
H389        H  0.40624011  0.90453789  0.44006316     0.35500
H390        H  0.42365192  0.90202756  0.48278737     0.40600
H391        H  0.38180407  0.95802372  0.54467142     0.40200
H392        H  0.40621005  0.98530138  0.54575944     0.35100
C393        C  0.53704026  0.05279678  0.35210374    -0.26600
C394        C  0.55515055  0.06855984  0.38618318    -0.14700
C395        C  0.55681008  0.09073017  0.38913572     0.35900
C396        C  0.53560318  0.09129443  0.38567040    -0.26100
C397        C  0.51365420  0.07019144  0.37711568    -0.15300
C398        C  0.51689204  0.05472546  0.34440998     0.37000
N399        N  0.50158102  0.04338693  0.30070747    -0.89600
H400        H  0.53785661  0.03852690  0.33369958     0.18100
H401        H  0.53673955  0.10807363  0.38678277     0.18100
N402        N  0.57887023  0.11178368  0.39922082    -0.88600
H403        H  0.50814831  0.03482054  0.27823638     0.35500
H404        H  0.50223973  0.05619605  0.27599122     0.40600
H405        H  0.57707060  0.11981415  0.43247737     0.40200
H406        H  0.58242863  0.12320244  0.36784413     0.35100
C407        C  0.54882689  0.08372372  0.66367070    -0.26600
C408        C  0.54747611  0.06162142  0.66751765    -0.14700
C409        C  0.52498063  0.04359107  0.68636878     0.35900
C410        C  0.50497872  0.04464341  0.67510115    -0.26100
C411        C  0.50571249  0.06341190  0.64692674    -0.15300
C412        C  0.52806245  0.08472927  0.65170840     0.37000
N413        N  0.52968518  0.10709832  0.64852731    -0.89600
H414        H  0.56599105  0.09975195  0.66152199     0.18100
H415        H  0.48846078  0.02995023  0.68919603     0.18100
N416        N  0.52085334  0.02394725  0.71763015    -0.88600
H417        H  0.54330307  0.11777507  0.62253483     0.35500
H418        H  0.53473671  0.11493732  0.68519701     0.40600
H419        H  0.53595736  0.02450566  0.73028235     0.40200
H420        H  0.51132936  0.00919515  0.69431493     0.35100
C421        C  0.56634127  0.07668410  0.55978642    -0.26600
C422        C  0.57498747  0.06457042  0.58809510    -0.14700
C423        C  0.58731854  0.05610787  0.55786094     0.35900
C424        C  0.58762245  0.05742130  0.50282956    -0.26100
C425        C  0.57491743  0.06590492  0.47488304    -0.15300
C426        C  0.56327194  0.07460022  0.50610081     0.37000
N427        N  0.54530796  0.07827695  0.48664040    -0.89600
H428        H  0.55820777  0.08517906  0.57727108     0.18100
H429        H  0.59688831  0.05047392  0.48143926     0.18100
N430        N  0.59865890  0.04514496  0.58267070    -0.88600
H431        H  0.54958741  0.09530031  0.49687795     0.35500
H432        H  0.52939511  0.06620438  0.50486287     0.40600
H433        H  0.61649756  0.05437300  0.57183530     0.40200
H434        H  0.59110685  0.02800866  0.56827366     0.35100
C435        C  0.49706083  0.97299320  0.36087283    -0.26600
C436        C  0.49616373  0.95356827  0.38590630    -0.14700
C437        C  0.47407174  0.93250655  0.37675242     0.35900
C438        C  0.45328100  0.93389055  0.37061837    -0.26100
C439        C  0.45457968  0.95593343  0.37092117    -0.15300
C440        C  0.47699964  0.97432668  0.35284005     0.37000
N441        N  0.48036026  0.99321046  0.32031672    -0.89600
H442        H  0.51355497  0.98760840  0.34637518     0.18100
H443        H  0.43644348  0.91795497  0.36429535     0.18100
N444        N  0.47313214  0.91082633  0.36551397    -0.88600
H445        H  0.48755057  0.00771359  0.34452735     0.35500
H446        H  0.46489174  0.99048940  0.30344076     0.40600
H447        H  0.46959353  0.90752579  0.32577529     0.40200
H448        H  0.45860116  0.89710003  0.38495713     0.35100
C449        C  0.57182927  0.02275198  0.38660606    -0.26600
C450        C  0.56134585  0.03459723  0.41035388    -0.14700
C451        C  0.53954266  0.02027692  0.43618008     0.35900
C452        C  0.53020364  0.99634907  0.44214715    -0.26100
C453        C  0.53801571  0.98385258  0.41213166    -0.15300
C454        C  0.55982224  0.99757600  0.38498503     0.37000
N455        N  0.57004793  0.98650666  0.35627437    -0.89600
H456        H  0.58897621  0.03271944  0.36813456     0.18100
H457        H  0.51389843  0.98670558  0.46422202     0.18100
N458        N  0.52485039  0.02949661  0.44946147    -0.88600
H459        H  0.58687741  0.99232067  0.37126972     0.35500
H460        H  0.57203452  0.99221644  0.31758646     0.40600
H461        H  0.51650976  0.02297829  0.48503848     0.40200
H462        H  0.51146268  0.02242610  0.42191163     0.35100
C463        C  0.46605362  0.92393319  0.64823488    -0.26600
C464        C  0.48760527  0.94460444  0.66085856    -0.14700
C465        C  0.48381467  0.96036308  0.69075458     0.35900
C466        C  0.46407231  0.96245371  0.67976931    -0.26100
C467        C  0.44632958  0.94699680  0.64447322    -0.15300
C468        C  0.44524530  0.92490419  0.63941346     0.37000
N469        N  0.42366137  0.90331933  0.62864278    -0.89600
H470        H  0.46565261  0.90754629  0.64204980     0.18100
H471        H  0.46339123  0.97692008  0.69736687     0.18100
N472        N  0.49751493  0.97118858  0.73664905    -0.88600
H473        H  0.41603715  0.90460710  0.59433679     0.35500
H474        H  0.41187547  0.90009897  0.65921139     0.40600
H475        H  0.49249416  0.95760865  0.76367251     0.40200
H476        H  0.49186522  0.98162981  0.75455210     0.35100
C477        C  0.52576059  0.99101533  0.61543005    -0.26600
C478        C  0.53070906  0.97787487  0.64998367    -0.14700
C479        C  0.55140285  0.99133147  0.68114770     0.35900
C480        C  0.56425732  0.01673961  0.67930236    -0.26100
C481        C  0.55711329  0.02939483  0.64672805    -0.15300
C482        C  0.53793757  0.01519678  0.61277868     0.37000
N483        N  0.53003325  0.02431542  0.57272511    -0.89600
H484        H  0.51209073  0.98187990  0.58674886     0.18100
H485        H  0.57941143  0.02641445  0.70437147     0.18100
N486        N  0.56012294  0.97986110  0.71325995    -0.88600
H487        H  0.52668040  0.03716285  0.58573049     0.35500
H488        H  0.54227249  0.02993342  0.54262973     0.40600
H489        H  0.56085968  0.98556778  0.75154542     0.40200
H490        H  0.57736552  0.98536121  0.70123808     0.35100
C491        C  0.53823330  0.96001806  0.50166451    -0.26600
C492        C  0.51759401  0.94942066  0.47023951    -0.14700
C493        C  0.49663274  0.93307892  0.49631517     0.35900
C494        C  0.49521559  0.93289680  0.55064130    -0.26100
C495        C  0.51497757  0.94655275  0.58255884    -0.15300
C496        C  0.53719943  0.95787345  0.55621871     0.37000
N497        N  0.55881595  0.96733927  0.58478617    -0.89600
H498        H  0.55551218  0.97012621  0.48355939     0.18100
H499        H  0.47848824  0.91994064  0.56560086     0.18100
N500        N  0.47750476  0.91426143  0.46950632    -0.88600
H501        H  0.56927279  0.98526472  0.57590290     0.35500
H502        H  0.56776352  0.95904828  0.57180774     0.40600
H503        H  0.46226654  0.91441309  0.47930037     0.40200
H504        H  0.47549153  0.89840377  0.48298310     0.35100
C505        C  0.75752588  0.49945969  0.73896975    -0.26600
C506        C  0.77726669  0.51865018  0.76229145    -0.14700
C507        C  0.77544983  0.53799906  0.77897765     0.35900
C508        C  0.75345676  0.53671728  0.77696562    -0.26100
C509        C  0.73322279  0.51644711  0.75829172    -0.15300
C510        C  0.73566476  0.49825783  0.73627977     0.37000
N511        N  0.71571558  0.47824119  0.71265917    -0.89600
H512        H  0.75883356  0.48477714  0.72466397     0.18100
H513        H  0.75193861  0.55100736  0.79309088     0.18100
N514        N  0.79552663  0.55851367  0.80017595    -0.88600
H515        H  0.72038962  0.46633454  0.69877608     0.35500
H516        H  0.71090905  0.48435109  0.68015251     0.40600
H517        H  0.79133060  0.56088269  0.83811658     0.40200
H518        H  0.79855228  0.57305496  0.77791172     0.35100
C519        C  0.68373924  0.50804798  0.04260123    -0.26600
C520        C  0.67606323  0.52213135  0.06589409    -0.14700
C521        C  0.67148039  0.53665430  0.03384952     0.35900
C522        C  0.67271979  0.53530517  0.97918622    -0.26100
C523        C  0.67861890  0.51975557  0.95586987    -0.15300
C524        C  0.68540474  0.50693835  0.98823161     0.37000
N525        N  0.69351338  0.49241588  0.96587008    -0.89600
H526        H  0.68796737  0.49735759  0.06701042     0.18100
H527        H  0.66789833  0.54559642  0.95500052     0.18100
N528        N  0.66441858  0.55188548  0.05635773    -0.88600
H529        H  0.69745402  0.48391446  0.99497527     0.35500
H530        H  0.70939005  0.50356681  0.94632196     0.40600
H531        H  0.64779167  0.54714344  0.04162664     0.40200
H532        H  0.67643124  0.56909991  0.04413122     0.35100
C533        C  0.80455434  0.50836296  0.04860995    -0.26600
C534        C  0.82527188  0.52078339  0.07802834    -0.14700
C535        C  0.84715702  0.53467071  0.05207751     0.35900
C536        C  0.84792555  0.53450071  0.99719080    -0.26100
C537        C  0.82731978  0.52068068  0.96808784    -0.15300
C538        C  0.80535174  0.50832884  0.99416093     0.37000
N539        N  0.78376787  0.49537335  0.96554529    -0.89600
H540        H  0.78760625  0.49799926  0.06803820     0.18100
H541        H  0.86481210  0.54418430  0.97726793     0.18100
N542        N  0.86865239  0.54756573  0.08131140    -0.88600
H543        H  0.77283238  0.50192091  0.97544541     0.35500
H544        H  0.77535337  0.47774655  0.97736984     0.40600
H545        H  0.86805965  0.56113035  0.10069936     0.40200
H546        H  0.88327574  0.55571639  0.05630058     0.35100
C547        C  0.76501124  0.53572594  0.25706125    -0.26600
C548        C  0.76413372  0.51477729  0.27131358    -0.14700
C549        C  0.74221114  0.49541721  0.28790408     0.35900
C550        C  0.72164649  0.49682210  0.28642708    -0.26100
C551        C  0.72223453  0.51720389  0.26852020    -0.15300
C552        C  0.74439241  0.53710951  0.25560212     0.37000
N553        N  0.74603984  0.55859379  0.23928242    -0.89600
H554        H  0.78163359  0.55087957  0.24472912     0.18100
H555        H  0.70493124  0.48140415  0.29729846     0.18100
N556        N  0.74050517  0.47397818  0.30498540    -0.88600
H557        H  0.75339871  0.56268239  0.20185603     0.35500
H558        H  0.75762377  0.57197984  0.26441125     0.40600
H559        H  0.72843118  0.46032002  0.28103161     0.40200
H560        H  0.73372789  0.47044805  0.34294662     0.35100
C561        C  0.60809652  0.09251297  0.76431210    -0.26600
C562        C  0.62852311  0.10992529  0.73892295    -0.14700
C563        C  0.63142339  0.10677499  0.68582436     0.35900
C564        C  0.61282572  0.08839902  0.65837544    -0.26100
C565        C  0.59059524  0.07219348  0.68176709    -0.15300
C566        C  0.58949355  0.07374394  0.73689244     0.37000
N567        N  0.56908600  0.05724049  0.76567462    -0.89600
H568        H  0.60588308  0.09412273  0.80566845     0.18100
H569        H  0.61607483  0.08851852  0.61730055     0.18100
N570        N  0.65239330  0.12280017  0.65734072    -0.88600
H571        H  0.56228948  0.06639891  0.78500785     0.35500
H572        H  0.57430914  0.04936446  0.79369258     0.40600
H573        H  0.66690444  0.12341595  0.67529013     0.40200
H574        H  0.65445448  0.13954288  0.65782645     0.35100
C575        C  0.80513217  0.42368509  0.83219335    -0.26600
C576        C  0.81684121  0.44019561  0.79218899    -0.14700
C577        C  0.82637380  0.43405381  0.74974425     0.35900
C578        C  0.82480326  0.41213588  0.74940954    -0.26100
C579        C  0.81402596  0.39607427  0.79065313    -0.15300
C580        C  0.80355745  0.40174155  0.83171309     0.37000
N581        N  0.79153369  0.38541044  0.87340347    -0.89600
H582        H  0.79753307  0.42800079  0.86471834     0.18100
H583        H  0.83308174  0.40813476  0.71776201     0.18100
N584        N  0.83882772  0.45007089  0.70782336    -0.88600
H585        H  0.77412807  0.38178954  0.87476316     0.35500
H586        H  0.79974990  0.39355528  0.90835678     0.40600
H587        H  0.85292681  0.46555449  0.72318573     0.40200
H588        H  0.82726393  0.45398372  0.68884178     0.35100
C589        C  0.77558608  0.25479233  0.78352636    -0.26600
C590        C  0.77651167  0.27320395  0.75438092    -0.14700
C591        C  0.75719210  0.26840315  0.72251562     0.35900
C592        C  0.73639690  0.24618512  0.72493177    -0.26100
C593        C  0.73447168  0.22860474  0.75893029    -0.15300
C594        C  0.75471979  0.23267374  0.78654503     0.37000
N595        N  0.75377632  0.21506934  0.82065626    -0.89600
H596        H  0.79040979  0.25808869  0.80773388     0.18100
H597        H  0.72123623  0.24322771  0.70244628     0.18100
N598        N  0.75825682  0.28630709  0.68921730    -0.88600
H599        H  0.75779730  0.22201277  0.85831943     0.35500
H600        H  0.76686321  0.21157380  0.80894894     0.40600
H601        H  0.74459100  0.28911377  0.69991096     0.40200
H602        H  0.75520798  0.27997834  0.65101933     0.35100
C603        C  0.59629173  0.07354565  0.33062808    -0.26600
C604        C  0.59657800  0.07734521  0.38496249    -0.14700
C605        C  0.61681202  0.09853850  0.40463356     0.35900
C606        C  0.63366075  0.11494725  0.37022348    -0.26100
C607        C  0.63084980  0.11246622  0.31637591    -0.15300
C608        C  0.61255799  0.09084521  0.29643275     0.37000
N609        N  0.60912531  0.08623895  0.24168942    -0.89600
H610        H  0.58154205  0.05798888  0.31353908     0.18100
H611        H  0.64796060  0.13119203  0.38631003     0.18100
N612        N  0.62062278  0.10589843  0.45792121    -0.88600
H613        H  0.62496122  0.08922670  0.22522651     0.35500
H614        H  0.60441311  0.09759143  0.22476221     0.40600
H615        H  0.62396123  0.09487238  0.48054391     0.40200
H616        H  0.60715567  0.10822989  0.47220248     0.35100
C617        C  0.68470911  0.19695049  0.04912481    -0.26600
C618        C  0.67752950  0.17588447  0.07610175    -0.14700
C619        C  0.67215116  0.15548818  0.04784191     0.35900
C620        C  0.67256126  0.15618268  0.99309174    -0.26100
C621        C  0.67836367  0.17698571  0.96610256    -0.15300
C622        C  0.68526645  0.19773071  0.99472020     0.37000
N623        N  0.69256368  0.21964634  0.96888152    -0.89600
H624        H  0.68935600  0.21290447  0.07034393     0.18100
H625        H  0.66743619  0.14015185  0.97175083     0.18100
N626        N  0.66529819  0.13383185  0.07433481    -0.88600
H627        H  0.70970953  0.23190401  0.98103329     0.35500
H628        H  0.68137713  0.22561365  0.98085248     0.40600
H629        H  0.67696670  0.12833931  0.06318914     0.40200
H630        H  0.64836713  0.12115782  0.06182830     0.35100
C631        C  0.80366700  0.40373266  0.28468983    -0.26600
C632        C  0.80396745  0.39404842  0.23619585    -0.14700
C633        C  0.80222536  0.40477314  0.19028359     0.35900
C634        C  0.80290229  0.42615880  0.19331169    -0.26100
C635        C  0.80506626  0.43711823  0.24135169    -0.15300
C636        C  0.80420964  0.42520608  0.28764371     0.37000
N637        N  0.80511015  0.43532400  0.33747942    -0.89600
H638        H  0.80444785  0.39540750  0.32038244     0.18100
H639        H  0.80267155  0.43468445  0.15742725     0.18100
N640        N  0.80063398  0.39452673  0.14020125    -0.88600
H641        H  0.81994296  0.43751281  0.35724663     0.35500
H642        H  0.79006894  0.42331577  0.35857878     0.40600
H643        H  0.81503775  0.40667918  0.11765388     0.40200
H644        H  0.78517909  0.39167980  0.12222759     0.35100
C645        C  0.84659529  0.34069430  0.98599380    -0.26600
C646        C  0.82486413  0.33001675  0.95980581    -0.14700
C647        C  0.80364867  0.31962493  0.98889187     0.35900
C648        C  0.80469100  0.32123461  0.04334594    -0.26100
C649        C  0.82641828  0.33289172  0.06964685    -0.15300
C650        C  0.84764875  0.34231463  0.04065737     0.37000
N651        N  0.87017257  0.35447403  0.06630069    -0.89600
H652        H  0.86288818  0.34873146  0.96363765     0.18100
H653        H  0.78832698  0.31369967  0.06534892     0.18100
N654        N  0.78112107  0.30783314  0.96311533    -0.88600
H655        H  0.88395833  0.36149123  0.03901648     0.35500
H656        H  0.87184638  0.34197256  0.08771391     0.40600
H657        H  0.76728114  0.30153726  0.99018289     0.40200
H658        H  0.77951800  0.29306925  0.94435425     0.35100
C659        C  0.74855394  0.23476501  0.24623869    -0.26600
C660        C  0.72825655  0.23265426  0.26963176    -0.14700
C661        C  0.72983884  0.25255292  0.29371218     0.35900
C662        C  0.75114600  0.27421266  0.29204792    -0.26100
C663        C  0.77105481  0.27676559  0.26583807    -0.15300
C664        C  0.76978308  0.25667635  0.24337706     0.37000
N665        N  0.78943729  0.25861268  0.21498112    -0.89600
H666        H  0.74756216  0.21972072  0.22698840     0.18100
H667        H  0.75170361  0.28939298  0.30948125     0.18100
N668        N  0.70964091  0.25111193  0.31852689    -0.88600
H669        H  0.78397707  0.25307237  0.17676640     0.35500
H670        H  0.79396089  0.24708142  0.23180947     0.40600
H671        H  0.70604900  0.26300173  0.29998898     0.40200
H672        H  0.71399736  0.25641632  0.35724653     0.35100
C673        C  0.47216734  0.09324010  0.63358478    -0.26600
C674        C  0.47487973  0.07535228  0.65697161    -0.14700
C675        C  0.47591113  0.07545649  0.71236128     0.35900
C676        C  0.47776941  0.09451000  0.74091051    -0.26100
C677        C  0.47800225  0.11358797  0.71629370    -0.15300
C678        C  0.47393498  0.11212819  0.66199486     0.37000
N679        N  0.47266349  0.13007933  0.63358831    -0.89600
H680        H  0.47020656  0.09391969  0.59201346     0.18100
H681        H  0.48009055  0.09477236  0.78271995     0.18100
N682        N  0.47635008  0.05693263  0.74014229    -0.88600
H683        H  0.48885436  0.14588835  0.63647971     0.35500
H684        H  0.45922845  0.13209043  0.64967768     0.40600
H685        H  0.46238508  0.04977824  0.76694910     0.40200
H686        H  0.49209486  0.06434187  0.76128201     0.35100
C687        C  0.58789990  0.20093389  0.82887771    -0.26600
C688        C  0.57297177  0.19150972  0.78565027    -0.14700
C689        C  0.58061678  0.18423713  0.74204908     0.35900
C690        C  0.60230223  0.18505841  0.74377297    -0.26100
C691        C  0.61646033  0.19296837  0.78851208    -0.15300
C692        C  0.60965816  0.20200895  0.83039153     0.37000
N693        N  0.62461201  0.21197601  0.87490096    -0.89600
H694        H  0.58242719  0.20702696  0.86224110     0.18100
H695        H  0.60734161  0.17815402  0.71118779     0.18100
N696        N  0.56582006  0.17467716  0.69723519    -0.88600
H697        H  0.61516377  0.20249625  0.90790980     0.35500
H698        H  0.62852449  0.22933424  0.87902472     0.40600
H699        H  0.56238746  0.15756597  0.69157837     0.40200
H700        H  0.57526157  0.18478789  0.66486442     0.35100
C701        C  0.57717530  0.40134920  0.75455128    -0.26600
C702        C  0.56563158  0.39223122  0.80248370    -0.14700
C703        C  0.57672454  0.40439282  0.84872431     0.35900
C704        C  0.59818187  0.42585162  0.84603763    -0.26100
C705        C  0.60913312  0.43557485  0.79811889    -0.15300
C706        C  0.59882714  0.42286025  0.75199606     0.37000
N707        N  0.60969066  0.43210980  0.70238360    -0.89600
H708        H  0.56904042  0.39216855  0.71868065     0.18100
H709        H  0.60606608  0.43522332  0.88188847     0.18100
N710        N  0.56604708  0.39543107  0.89864472    -0.88600
H711        H  0.59768163  0.43392406  0.67931565     0.35500
H712        H  0.61284126  0.41977099  0.68461530     0.40600
H713        H  0.56332269  0.40801860  0.91659894     0.40200
H714        H  0.57794062  0.39327279  0.92132968     0.35100
C715        C  0.51237865  0.25258966  0.73883207    -0.26600
C716        C  0.49315713  0.23131361  0.75734259    -0.14700
C717        C  0.47244733  0.23097095  0.77320300     0.35900
C718        C  0.47199086  0.25200858  0.77391447    -0.26100
C719        C  0.49186444  0.27359735  0.75898283    -0.15300
C720        C  0.51191264  0.27357682  0.73937815     0.37000
N721        N  0.53219132  0.29494274  0.72130116    -0.89600
H722        H  0.52833694  0.25322333  0.72575846     0.18100
H723        H  0.45637335  0.25156696  0.78878053     0.18100
N724        N  0.45216031  0.20954657  0.79091615    -0.88600
H725        H  0.53538611  0.29249953  0.68257214     0.35500
H726        H  0.54676624  0.29794377  0.74341667     0.40600
H727        H  0.43779001  0.20631749  0.76776268     0.40200
H728        H  0.44848147  0.21203638  0.82922568     0.35100
C729        C  0.49978836  0.09476585  0.31039092    -0.26600
C730        C  0.48380443  0.08268664  0.35209558    -0.14700
C731        C  0.46556345  0.08798990  0.35936344     0.35900
C732        C  0.46560561  0.10625122  0.33046975    -0.26100
C733        C  0.48254961  0.11864784  0.29168263    -0.15300
C734        C  0.49933465  0.11212710  0.28078103     0.37000
N735        N  0.51741316  0.12388741  0.24189718    -0.89600
H736        H  0.51395499  0.09191834  0.30042097     0.18100
H737        H  0.45231897  0.11080896  0.33865722     0.18100
N738        N  0.44688415  0.07519542  0.39597407    -0.88600
H739        H  0.52718993  0.14188403  0.25026714     0.35500
H740        H  0.50947529  0.12131716  0.20543447     0.40600
H741        H  0.43083592  0.06752313  0.37597867     0.40200
H742        H  0.44707913  0.08715465  0.42284690     0.35100
C743        C  0.57573315  0.18809974  0.28532390    -0.26600
C744        C  0.56952220  0.19453725  0.23847791    -0.14700
C745        C  0.58389027  0.19893185  0.19401336     0.35900
C746        C  0.60312427  0.19550372  0.19635351    -0.26100
C747        C  0.60865105  0.18797812  0.24239484    -0.15300
C748        C  0.59505439  0.18477081  0.28774028     0.37000
N749        N  0.59956704  0.17689456  0.33590021    -0.89600
H750        H  0.56483688  0.18448448  0.31977457     0.18100
H751        H  0.61362326  0.19843960  0.16148589     0.18100
N752        N  0.57878889  0.20638991  0.14593456    -0.88600
H753        H  0.61648323  0.18948405  0.34856798     0.35500
H754        H  0.59903837  0.16106895  0.32916245     0.40600
H755        H  0.57600712  0.19397904  0.11737072     0.40200
H756        H  0.59365336  0.22245057  0.13513118     0.35100
C757        C  0.47505270  0.16141444  0.04047155    -0.26600
C758        C  0.49192216  0.18232069  0.06540109    -0.14700
C759        C  0.50750205  0.20196531  0.03404839     0.35900
C760        C  0.50652248  0.19996702  0.97994976    -0.26100
C761        C  0.49097355  0.17863772  0.95505985    -0.15300
C762        C  0.47454864  0.15929104  0.98590503     0.37000
N763        N  0.45786498  0.13705989  0.96341768    -0.89600
H764        H  0.46285494  0.14620139  0.06355065     0.18100
H765        H  0.51897257  0.21519494  0.95719699     0.18100
N766        N  0.52505705  0.22412215  0.05548365    -0.88600
H767        H  0.46712581  0.13071160  0.94278711     0.35500
H768        H  0.44717626  0.13964028  0.93759396     0.40600
H769        H  0.53741619  0.22186276  0.07597860     0.40200
H770        H  0.51682330  0.23023278  0.08042126     0.35100
C771        C  0.57394256  0.40352605  0.25631093    -0.26600
C772        C  0.55631620  0.39941467  0.21995248    -0.14700
C773        C  0.56043755  0.41758457  0.18481974     0.35900
C774        C  0.58154458  0.43935310  0.18728914    -0.26100
C775        C  0.59896587  0.44372760  0.22420790    -0.15300
C776        C  0.59517164  0.42548176  0.25876126     0.37000
N777        N  0.61271475  0.42907414  0.29632555    -0.89600
H778        H  0.57113720  0.38978891  0.28353737     0.18100
H779        H  0.58410181  0.45305727  0.16022371     0.18100
N780        N  0.54317265  0.41423150  0.14667731    -0.88600
H781        H  0.61757482  0.41653915  0.28976016     0.35500
H782        H  0.60500933  0.42600058  0.33335435     0.40600
H783        H  0.55101926  0.41716463  0.10982898     0.40200
H784        H  0.53844973  0.42689481  0.15284680     0.35100
C785        C  0.46371306  0.32505379  0.98602508    -0.26600
C786        C  0.47876717  0.31879339  0.96153251    -0.14700
C787        C  0.49137337  0.31122196  0.99219232     0.35900
C788        C  0.49035857  0.31215506  0.04658408    -0.26100
C789        C  0.47702570  0.32044955  0.07112007    -0.15300
C790        C  0.46293862  0.32618421  0.04064291     0.37000
N791        N  0.44921635  0.33478932  0.06463574    -0.89600
H792        H  0.45390425  0.33081049  0.96282125     0.18100
H793        H  0.50085162  0.30728675  0.06995862     0.18100
N794        N  0.50586570  0.30343955  0.96797900    -0.88600
H795        H  0.43160627  0.32387044  0.05345772     0.35500
H796        H  0.45508839  0.35169139  0.05007929     0.40600
H797        H  0.49465722  0.28806085  0.94733794     0.40200
H798        H  0.51429408  0.29889382  0.99605514     0.35100
C799        C  0.50134408  0.25251179  0.29898828    -0.26600
C800        C  0.48508409  0.23289110  0.26969722    -0.14700
C801        C  0.46606154  0.23336986  0.24584545     0.35900
C802        C  0.46482007  0.25394826  0.24784327    -0.26100
C803        C  0.48235408  0.27429068  0.27293563    -0.15300
C804        C  0.50005000  0.27309554  0.30128193     0.37000
N805        N  0.51710309  0.29305380  0.33088394    -0.89600
H806        H  0.51571250  0.25216746  0.31845732     0.18100
H807        H  0.45099907  0.25449957  0.22635032     0.18100
N808        N  0.44875812  0.21357669  0.21664924    -0.88600
H809        H  0.52898737  0.28938084  0.34920946     0.35500
H810        H  0.50793448  0.29588020  0.36052753     0.40600
H811        H  0.44911973  0.21908639  0.17828941     0.40200
H812        H  0.43210995  0.20826319  0.23243301     0.35100
C813        C  0.38435325  0.92128094  0.73218928    -0.26600
C814        C  0.36651463  0.90120917  0.70699082    -0.14700
C815        C  0.36635529  0.90118795  0.65187890     0.35900
C816        C  0.38491120  0.91989754  0.62406894    -0.26100
C817        C  0.40471241  0.93876345  0.64934982    -0.15300
C818        C  0.40330286  0.93971529  0.70453595     0.37000
N819        N  0.42174258  0.95864881  0.73359487    -0.89600
H820        H  0.38456615  0.92205622  0.77436506     0.18100
H821        H  0.38453657  0.91798586  0.58225992     0.18100
N822        N  0.34858110  0.88172286  0.62265087    -0.88600
H823        H  0.42851355  0.95154261  0.75989475     0.35500
H824        H  0.41429633  0.96662260  0.75520282     0.40600
H825        H  0.33203776  0.87904957  0.63304886     0.40200
H826        H  0.34923565  0.86667483  0.63174191     0.35100
C827        C  0.26284266  0.76128409  0.73594286    -0.26600
C828        C  0.26358856  0.78101899  0.75842091    -0.14700
C829        C  0.24252612  0.77836514  0.77943914     0.35900
C830        C  0.22185907  0.75594523  0.78125648    -0.26100
C831        C  0.22176889  0.73591412  0.76288817    -0.15300
C832        C  0.24219448  0.73890868  0.73774095     0.37000
N833        N  0.24225261  0.71920370  0.71489697    -0.89600
H834        H  0.27866212  0.76297313  0.71868211     0.18100
H835        H  0.20625277  0.75405193  0.80014897     0.18100
N836        N  0.24226583  0.79807689  0.80155849    -0.88600
H837        H  0.25556096  0.71752270  0.73262252     0.35500
H838        H  0.24652610  0.72291232  0.67541428     0.40600
H839        H  0.23719986  0.79424699  0.84065872     0.40200
H840        H  0.22941722  0.79997348  0.78220267     0.35100
C841        C  0.19105903  0.69465774  0.99786784    -0.26600
C842        C  0.16997310  0.68735720  0.97070760    -0.14700
C843        C  0.14944817  0.68203814  0.99921756     0.35900
C844        C  0.15002019  0.68248631  0.05411324    -0.26100
C845        C  0.17074850  0.68802435  0.08116216    -0.15300
C846        C  0.19163824  0.69504776  0.05242332     0.37000
N847        N  0.21350346  0.70223714  0.07841658    -0.89600
H848        H  0.20714322  0.69931623  0.97670857     0.18100
H849        H  0.13387083  0.67729837  0.07553049     0.18100
N850        N  0.12771934  0.67505513  0.97288841    -0.88600
H851        H  0.22585482  0.71936715  0.06629532     0.35500
H852        H  0.21955257  0.69113929  0.06652220     0.40600
H853        H  0.12209696  0.68661993  0.98373915     0.40200
H854        H  0.11505783  0.65818071  0.98584779     0.35100
C855        C  0.39625448  0.92194954  0.26615944    -0.26600
C856        C  0.37356569  0.90842940  0.28785911    -0.14700
C857        C  0.36946575  0.91514258  0.33710717     0.35900
C858        C  0.38823334  0.93351319  0.36471846    -0.26100
C859        C  0.41198183  0.94507502  0.34670114    -0.15300
C860        C  0.41527678  0.93981723  0.29444226     0.37000
N861        N  0.43792813  0.95176241  0.26955078    -0.89600
H862        H  0.39979457  0.91774221  0.22765735     0.18100
H863        H  0.38385270  0.93745246  0.40227133     0.18100
N864        N  0.34661426  0.90321781  0.36133522    -0.88600
H865        H  0.43661538  0.95968837  0.23549686     0.35500
H866        H  0.44239890  0.93927557  0.25899031     0.40600
H867        H  0.34180479  0.88580316  0.36902536     0.40200
H868        H  0.33442618  0.90343919  0.33576862     0.35100
C869        C  0.30274927  0.82318500  0.03470785    -0.26600
C870        C  0.31446296  0.84486610  0.06064207    -0.14700
C871        C  0.32461161  0.86588016  0.03077959     0.35900
C872        C  0.32484816  0.86466727  0.97608249    -0.26100
C873        C  0.31509726  0.84286345  0.95049096    -0.15300
C874        C  0.30281865  0.82192024  0.98045667     0.37000
N875        N  0.29022447  0.79902606  0.95714538    -0.89600
H876        H  0.29423035  0.80690786  0.05693195     0.18100
H877        H  0.33387133  0.88088004  0.95372449     0.18100
N878        N  0.33584587  0.88862112  0.05472264    -0.88600
H879        H  0.30219815  0.79533975  0.93929339     0.35500
H880        H  0.27863138  0.79889221  0.92926501     0.40600
H881        H  0.34953176  0.89040183  0.07839902     0.40200
H882        H  0.32335890  0.88963032  0.07798572     0.35100
C883        C  0.26529596  0.76856543  0.29674187    -0.26600
C884        C  0.26524151  0.78751548  0.27201879    -0.14700
C885        C  0.24334533  0.78448747  0.25599764     0.35900
C886        C  0.22268179  0.76195788  0.25920295    -0.26100
C887        C  0.22326624  0.74247561  0.27920638    -0.15300
C888        C  0.24454613  0.74626099  0.30132218     0.37000
N889        N  0.24524011  0.72727747  0.32682894    -0.89600
H890        H  0.28183321  0.77089175  0.31081244     0.18100
H891        H  0.20630819  0.75937515  0.24339082     0.18100
N892        N  0.24231170  0.80386392  0.23375713    -0.88600
H893        H  0.23426259  0.72252656  0.35964039     0.35500
H894        H  0.26224420  0.73291009  0.34052377     0.40600
H895        H  0.24661011  0.81630872  0.26321132     0.40200
H896        H  0.22506212  0.79848893  0.22232473     0.35100
C897        C  0.17702001  0.58072587  0.86188836    -0.26600
C898        C  0.17720734  0.57014607  0.81470338    -0.14700
C899        C  0.17942793  0.58213854  0.76759071     0.35900
C900        C  0.18033165  0.60384591  0.76849726    -0.26100
C901        C  0.17878573  0.61374949  0.81567674    -0.15300
C902        C  0.17784122  0.60232673  0.86302861     0.37000
N903        N  0.17720472  0.61237571  0.91221362    -0.89600
H904        H  0.17570564  0.57183801  0.89831938     0.18100
H905        H  0.18120011  0.61244003  0.73190609     0.18100
N906        N  0.17977924  0.57196296  0.71864687    -0.88600
H907        H  0.19339509  0.62809177  0.91659316     0.35500
H908        H  0.17584406  0.60142641  0.94310092     0.40600
H909        H  0.19539704  0.58385743  0.69913396     0.40200
H910        H  0.16555040  0.56987577  0.69649907     0.35100
C911        C  0.25774395  0.50543155  0.75624184    -0.26600
C912        C  0.25852403  0.48731356  0.78286486    -0.14700
C913        C  0.23733167  0.46850652  0.80408960     0.35900
C914        C  0.21641812  0.46942015  0.80209960    -0.26100
C915        C  0.21632864  0.48876092  0.77963916    -0.15300
C916        C  0.23700187  0.50635119  0.75455117     0.37000
N917        N  0.23732924  0.52575809  0.72893728    -0.89600
H918        H  0.27370855  0.51974218  0.73885537     0.18100
H919        H  0.20057234  0.45575791  0.82121004     0.18100
N920        N  0.23743361  0.44948064  0.83087160    -0.88600
H921        H  0.24227417  0.52602260  0.69009536     0.35500
H922        H  0.25025856  0.54132818  0.74656351     0.40600
H923        H  0.24080715  0.44000431  0.80315695     0.40200
H924        H  0.22072861  0.43777401  0.84650217     0.35100
C925        C  0.31679871  0.46984637  0.06677016    -0.26600
C926        C  0.30883592  0.48278519  0.09438226    -0.14700
C927        C  0.29915541  0.49418994  0.06646913     0.35900
C928        C  0.29976856  0.49448959  0.01187841    -0.26100
C929        C  0.30961095  0.48330282  0.98416180    -0.15300
C930        C  0.31731826  0.47007195  0.01188725     0.37000
N931        N  0.32708459  0.45811699  0.98473420    -0.89600
H932        H  0.32409313  0.46081759  0.08769685     0.18100
H933        H  0.29318845  0.50421211  0.99110750     0.18100
N934        N  0.28902503  0.50586081  0.09347213    -0.88600
H935        H  0.31729753  0.44029781  0.99506186     0.35500
H936        H  0.34443549  0.46490724  0.99752939     0.40600
H937        H  0.27144419  0.49832803  0.08163094     0.40200
H938        H  0.29812852  0.52356397  0.08209190     0.35100
C939        C  0.17805855  0.58579483  0.29660922    -0.26600
C940        C  0.18134537  0.57704524  0.24942154    -0.14700
C941        C  0.18522560  0.59020554  0.20336040     0.35900
C942        C  0.18434323  0.61087312  0.20459250    -0.26100
C943        C  0.17990847  0.61905529  0.25110688    -0.15300
C944        C  0.17718414  0.60660303  0.29777739     0.37000
N945        N  0.17236130  0.61429609  0.34587907    -0.89600
H946        H  0.17500599  0.57588696  0.33235836     0.18100
H947        H  0.18679403  0.62039393  0.16849359     0.18100
N948        N  0.18984956  0.58256757  0.15492356    -0.88600
H949        H  0.18551036  0.61702803  0.37244604     0.35500
H950        H  0.15617806  0.60072298  0.36032094     0.40600
H951        H  0.20616852  0.59599164  0.14073241     0.40200
H952        H  0.17681257  0.58020119  0.12839854     0.35100
C953        C  0.18536778  0.50046327  0.06021362    -0.26600
C954        C  0.16406257  0.48994988  0.08837749    -0.14700
C955        C  0.14248399  0.47647774  0.06141906     0.35900
C956        C  0.14270105  0.47569598  0.00649961    -0.26100
C957        C  0.16399768  0.48807539  0.97839417    -0.15300
C958        C  0.18552763  0.49958636  0.00578363     0.37000
N959        N  0.20766516  0.51096045  0.97840271    -0.89600
H960        H  0.20208586  0.51026477  0.08044442     0.18100
H961        H  0.12612313  0.46659463  0.98557944     0.18100
N962        N  0.12040979  0.46498759  0.08936628    -0.88600
H963        H  0.21748252  0.50354320  0.99100563     0.35500
H964        H  0.21687408  0.52877740  0.98862108     0.40600
H965        H  0.11987737  0.45143233  0.11140828     0.40200
H966        H  0.10621061  0.45691429  0.06351247     0.35100
C967        C  0.25991333  0.50800683  0.31641130    -0.26600
C968        C  0.26072313  0.49047669  0.28717402    -0.14700
C969        C  0.24051563  0.47438997  0.25868762     0.35900
C970        C  0.22042216  0.47660800  0.25846106    -0.26100
C971        C  0.22017115  0.49500742  0.28509251    -0.15300
C972        C  0.23993322  0.51049504  0.31559226     0.37000
N973        N  0.23992106  0.52906990  0.34452278    -0.89600
H974        H  0.27531886  0.52043550  0.33844159     0.18100
H975        H  0.20549848  0.46472851  0.23449077     0.18100
N976        N  0.24081949  0.45675647  0.22698894    -0.88600
H977        H  0.25586832  0.53905763  0.36442392     0.35500
H978        H  0.22664981  0.52119659  0.37287806     0.40600
H979        H  0.23790924  0.45960981  0.18836439     0.40200
H980        H  0.22676940  0.44031368  0.23866869     0.35100
C981        C  0.51853142  0.93424717  0.72941380    -0.26600
C982        C  0.51897217  0.93338167  0.67463041    -0.14700
C983        C  0.52082096  0.91441168  0.65259361     0.35900
C984        C  0.52016757  0.89699145  0.68476688    -0.26100
C985        C  0.51687432  0.89680524  0.73847571    -0.15300
C986        C  0.51681461  0.91622835  0.76118186     0.37000
N987        N  0.51429644  0.91801228  0.81614475    -0.89600
H988        H  0.51870195  0.94876089  0.74827159     0.18100
H989        H  0.52070275  0.88250189  0.66655516     0.18100
N990        N  0.52242407  0.91153389  0.59775865    -0.88600
H991        H  0.52745147  0.91656311  0.83531246     0.35500
H992        H  0.49764602  0.90436003  0.82801388     0.40600
H993        H  0.50796273  0.89531326  0.58654669     0.40200
H994        H  0.53789304  0.91130087  0.59023106     0.35100
C995        C  0.41850304  0.82827080  0.75050470    -0.26600
C996        C  0.42393846  0.82094262  0.79705905    -0.14700
C997        C  0.40783708  0.81359685  0.83902443     0.35900
C998        C  0.38774800  0.81561383  0.83542446    -0.26100
C999        C  0.38312054  0.82449335  0.79019491    -0.15300
C1000       C  0.39827533  0.83018408  0.74658562     0.37000
N1001       N  0.39371849  0.83882680  0.69931809    -0.89600
H1002       H  0.43072744  0.83375379  0.71794840     0.18100
H1003       H  0.37590909  0.81056864  0.86864070     0.18100
N1004       N  0.41183929  0.80415000  0.88546914    -0.88600
H1005       H  0.40624327  0.84163168  0.67073049     0.35500
H1006       H  0.39588922  0.85531071  0.70734443     0.40600
H1007       H  0.39735387  0.78713879  0.89111931     0.40200
H1008       H  0.41253202  0.81450306  0.91691916     0.35100
C1009       C  0.41145817  0.60435697  0.85380619    -0.26600
C1010       C  0.42378796  0.61203886  0.80627661    -0.14700
C1011       C  0.41377500  0.59802224  0.76154048     0.35900
C1012       C  0.39249010  0.57616072  0.76583600    -0.26100
C1013       C  0.38094519  0.56796325  0.81414783    -0.15300
C1014       C  0.39028983  0.58261332  0.85811052     0.37000
N1015       N  0.37841893  0.57548471  0.90745716    -0.89600
H1016       H  0.41856135  0.61503036  0.88847473     0.18100
H1017       H  0.38545114  0.56521152  0.73153069     0.18100
N1018       N  0.42543099  0.60549033  0.71205301    -0.88600
H1019       H  0.37448599  0.58820167  0.91930718     0.35500
H1020       H  0.39006778  0.57518692  0.93453836     0.40600
H1021       H  0.41374504  0.60626571  0.68585207     0.40200
H1022       H  0.42900295  0.59269446  0.69884677     0.35100
C1023       C  0.51958884  0.77662839  0.79923490    -0.26600
C1024       C  0.50148786  0.77788501  0.77367901    -0.14700
C1025       C  0.48474956  0.75828262  0.74471472     0.35900
C1026       C  0.48562908  0.73750352  0.74400328    -0.26100
C1027       C  0.50290851  0.73572245  0.77205823    -0.15300
C1028       C  0.52029968  0.75574671  0.79919565     0.37000
N1029       N  0.53788727  0.75460433  0.82947471    -0.89600
H1030       H  0.53244382  0.79143687  0.82213116     0.18100
H1031       H  0.47212819  0.72238662  0.72294224     0.18100
N1032       N  0.46657049  0.75926002  0.71652905    -0.88600
H1033       H  0.53604649  0.75827329  0.86823140     0.35500
H1034       H  0.55452248  0.76777164  0.81618298     0.40600
H1035       H  0.45020359  0.74579493  0.73039689     0.40200
H1036       H  0.46801137  0.75592307  0.67730871     0.35100
C1037       C  0.52917499  0.90591821  0.36262122    -0.26600
C1038       C  0.52478048  0.90608566  0.30960685    -0.14700
C1039       C  0.52488391  0.92584319  0.28846070     0.35900
C1040       C  0.52635322  0.94337307  0.32208770    -0.26100
C1041       C  0.52702441  0.94146439  0.37686351    -0.15300
C1042       C  0.53026578  0.92302724  0.39638740     0.37000
N1043       N  0.53406437  0.92065426  0.45030625    -0.89600
H1044       H  0.53015970  0.89136418  0.37911652     0.18100
H1045       H  0.52501186  0.95770227  0.30559702     0.18100
N1046       N  0.52233606  0.92753160  0.23331593    -0.88600
H1047       H  0.55010756  0.92117144  0.45396524     0.35500
H1048       H  0.52049640  0.90421898  0.46349791     0.40600
H1049       H  0.53729896  0.92906951  0.21524014     0.40200
H1050       H  0.52223855  0.94288455  0.22424003     0.35100
C1051       C  0.39347944  0.82970111  0.27473425    -0.26600
C1052       C  0.38374811  0.82939693  0.22588001    -0.14700
C1053       C  0.39496614  0.82775583  0.18036346     0.35900
C1054       C  0.41629181  0.82798917  0.18472625    -0.26100
C1055       C  0.42673633  0.82968917  0.23336706    -0.15300
C1056       C  0.41480674  0.82987788  0.27885592     0.37000
N1057       N  0.42463883  0.83114214  0.32923583    -0.89600
H1058       H  0.38500079  0.83072360  0.31003280     0.18100
H1059       H  0.42511836  0.82742578  0.14956606     0.18100
N1060       N  0.38518507  0.82662449  0.12970843    -0.88600
H1061       H  0.41225763  0.81658254  0.35098375     0.35500
H1062       H  0.42721346  0.84635896  0.34768974     0.40600
H1063       H  0.36923306  0.81052821  0.12729961     0.40200
H1064       H  0.39614035  0.82646363  0.10038027     0.35100
C1065       C  0.49853150  0.81872789  0.05376978    -0.26600
C1066       C  0.51041093  0.84084539  0.07786985    -0.14700
C1067       C  0.52329496  0.86128332  0.04709339     0.35900
C1068       C  0.52253339  0.85930313  0.99252949    -0.26100
C1069       C  0.50877535  0.83724604  0.96865866    -0.15300
C1070       C  0.49759688  0.81668335  0.99956312     0.37000
N1071       N  0.48467333  0.79381624  0.97575402    -0.89600
H1072       H  0.48907122  0.80292160  0.07734918     0.18100
H1073       H  0.53134817  0.87515826  0.96893682     0.18100
N1074       N  0.53588042  0.88407825  0.07074069    -0.88600
H1075       H  0.47716367  0.78054120  0.00404717     0.35500
H1076       H  0.49680123  0.79123554  0.95491384     0.40600
H1077       H  0.52897935  0.89409705  0.05641572     0.40200
H1078       H  0.55357357  0.89220888  0.05902682     0.35100
C1079       C  0.40925762  0.60568688  0.27982214    -0.26600
C1080       C  0.42410082  0.61185712  0.23587756    -0.14700
C1081       C  0.41762941  0.59540482  0.19487019     0.35900
C1082       C  0.39706465  0.57312993  0.19956374    -0.26100
C1083       C  0.38258486  0.56669815  0.24403780    -0.15300
C1084       C  0.38867411  0.58331205  0.28431779     0.37000
N1085       N  0.37436887  0.57747018  0.33032304    -0.89600
H1086       H  0.41393892  0.61805274  0.31160271     0.18100
H1087       H  0.39246474  0.56059595  0.16818000     0.18100
N1088       N  0.43205840  0.60111712  0.14879636    -0.88600
H1089       H  0.36886656  0.58965455  0.33417355     0.35500
H1090       H  0.38492342  0.57932856  0.36238891     0.40600
H1091       H  0.43109528  0.61441348  0.12901839     0.40200
H1092       H  0.42530514  0.58673211  0.12351022     0.35100
C1093       C  0.48913737  0.69247377  0.99298386    -0.26600
C1094       C  0.50399172  0.68616584  0.96785321    -0.14700
C1095       C  0.51961855  0.68239837  0.99791512     0.35900
C1096       C  0.51886447  0.68333278  0.05255200    -0.26100
C1097       C  0.50260709  0.68778149  0.07765677    -0.15300
C1098       C  0.48827607  0.69336951  0.04740838     0.37000
N1099       N  0.47242817  0.69934513  0.07199906    -0.89600
H1100       H  0.47749329  0.69597713  0.97011680     0.18100
H1101       H  0.53011600  0.67926150  0.07534660     0.18100
N1102       N  0.53547210  0.67654408  0.97346424    -0.88600
H1103       H  0.46286035  0.70254833  0.04418476     0.35500
H1104       H  0.48274017  0.71515604  0.09201702     0.40600
H1105       H  0.53164956  0.66011804  0.98756493     0.40200
H1106       H  0.55268708  0.68904928  0.98468357     0.35100
C1107       C  0.47817461  0.76311200  0.28182422    -0.26600
C1108       C  0.50005283  0.78400837  0.27486635    -0.14700
C1109       C  0.52061144  0.78235191  0.27078912     0.35900
C1110       C  0.51849678  0.76006304  0.26951568    -0.26100
C1111       C  0.49628175  0.73908914  0.27224489    -0.15300
C1112       C  0.47599762  0.74095976  0.28036548     0.37000
N1113       N  0.45269968  0.72078731  0.28598906    -0.89600
H1114       H  0.46217729  0.76379473  0.28588788     0.18100
H1115       H  0.53435379  0.75919743  0.26457759     0.18100
N1116       N  0.54382576  0.80282137  0.26775339    -0.88600
H1117       H  0.45260499  0.71053060  0.31709098     0.35500
H1118       H  0.44801079  0.71102973  0.25156075     0.40600
H1119       H  0.54618375  0.81355792  0.29977620     0.40200
H1120       H  0.54529065  0.81200736  0.23349409     0.35100
C1121       C  0.08227238  0.48145976  0.40230804    -0.26600
C1122       C  0.06343699  0.48143118  0.37503182    -0.14700
C1123       C  0.06398190  0.47946067  0.31984405     0.35900
C1124       C  0.08393891  0.48130637  0.29469847    -0.26100
C1125       C  0.10360282  0.48438382  0.32255124    -0.15300
C1126       C  0.10211647  0.48346307  0.37733471     0.37000
N1127       N  0.12075280  0.48530906  0.40937268    -0.89600
H1128       H  0.08271771  0.48069552  0.44410429     0.18100
H1129       H  0.08415616  0.48080760  0.25251666     0.18100
N1130       N  0.04427103  0.47488775  0.28837007    -0.88600
H1131       H  0.13606733  0.50162526  0.40264819     0.35500
H1132       H  0.12379001  0.47176068  0.39959134     0.40600
H1133       H  0.03813320  0.45873094  0.26975412     0.40200
H1134       H  0.05027354  0.48789586  0.25947362     0.35100
C1135       C  0.06585628  0.48121476  0.72705530    -0.26600
C1136       C  0.06763501  0.48089548  0.67234293    -0.14700
C1137       C  0.08469849  0.47565709  0.65206840     0.35900
C1138       C  0.10137600  0.47533024  0.68532513    -0.26100
C1139       C  0.10135467  0.47908481  0.73891340    -0.15300
C1140       C  0.08259587  0.48103666  0.76009250     0.37000
N1141       N  0.08049215  0.48400895  0.81469216    -0.89600
H1142       H  0.05220891  0.48340386  0.74476668     0.18100
H1143       H  0.11493825  0.47270793  0.66845884     0.18100
N1144       N  0.08551142  0.47036897  0.59831053    -0.88600
H1145       H  0.09520359  0.49984659  0.82672110     0.35500
H1146       H  0.07979030  0.46991444  0.83476969     0.40600
H1147       H  0.08305470  0.45348288  0.59587733     0.40200
H1148       H  0.10229642  0.48238183  0.58347391     0.35100
C1149       C  0.03831967  0.46072601  0.55075757    -0.26600
C1150       C  0.05291011  0.48165259  0.57851991    -0.14700
C1151       C  0.06958515  0.50081627  0.54663596     0.35900
C1152       C  0.06544884  0.50103707  0.49344565    -0.26100
C1153       C  0.04704511  0.48143492  0.46635180    -0.15300
C1154       C  0.03655765  0.46013335  0.49560539     0.37000
N1155       N  0.02662109  0.43783324  0.47069060    -0.89600
H1156       H  0.02899815  0.44423557  0.57057453     0.18100
H1157       H  0.07812332  0.51667615  0.47225970     0.18100
N1158       N  0.09122935  0.52025491  0.56619360    -0.88600
H1159       H  0.00935893  0.42697565  0.48434394     0.35500
H1160       H  0.03644998  0.43016993  0.48146415     0.40600
H1161       H  0.09476187  0.51706462  0.60369973     0.40200
H1162       H  0.08987565  0.53530717  0.56604679     0.35100
C1163       C  0.92371641  0.42095791  0.32173027    -0.26600
C1164       C  0.92334763  0.41703231  0.37591135    -0.14700
C1165       C  0.90607891  0.39407694  0.39434930     0.35900
C1166       C  0.88762938  0.37835896  0.36150229    -0.26100
C1167       C  0.88661468  0.38388323  0.30928036    -0.15300
C1168       C  0.90566574  0.40488955  0.28871497     0.37000
N1169       N  0.90667507  0.41029806  0.23440117    -0.89600
H1170       H  0.93751798  0.43740852  0.30509016     0.18100
H1171       H  0.87381680  0.36171702  0.37743185     0.18100
N1172       N  0.90711807  0.38598543  0.44543767    -0.88600
H1173       H  0.92238985  0.41243512  0.21917504     0.35500
H1174       H  0.90734470  0.42636482  0.23074652     0.40600
H1175       H  0.90879216  0.37118768  0.44159958     0.40200
H1176       H  0.89109743  0.38067104  0.46449606     0.35100
C1177       C  0.98110695  0.46774728  0.36270020    -0.26600
C1178       C  0.96741105  0.44582333  0.38728287    -0.14700
C1179       C  0.97844508  0.43205644  0.38679338     0.35900
C1180       C  0.00378676  0.44367809  0.38547556    -0.26100
C1181       C  0.01797363  0.46856740  0.38190344    -0.15300
C1182       C  0.00553892  0.47816893  0.35566900     0.37000
N1183       N  0.01632063  0.49721686  0.31881703    -0.89600
H1184       H  0.97279990  0.47669892  0.34681469     0.18100
H1185       H  0.01200119  0.43320634  0.38638675     0.18100
N1186       N  0.96445707  0.40701121  0.39291236    -0.88600
H1187       H  0.01446908  0.51077517  0.33317899     0.35500
H1188       H  0.03421432  0.50373057  0.31310898     0.40600
H1189       H  0.97029525  0.40224780  0.42593033     0.40200
H1190       H  0.96764843  0.39941489  0.36064572     0.35100
C1191       C  0.92609834  0.42075570  0.72887071    -0.26600
C1192       C  0.92962349  0.41747692  0.67606976    -0.14700
C1193       C  0.91613517  0.39361651  0.65741789     0.35900
C1194       C  0.89726391  0.37638088  0.68723824    -0.26100
C1195       C  0.89193755  0.38135350  0.73660732    -0.15300
C1196       C  0.90750309  0.40356795  0.75859843     0.37000
N1197       N  0.90450359  0.40984870  0.81025485    -0.89600
H1198       H  0.93695605  0.43724118  0.74761133     0.18100
H1199       H  0.88644082  0.35887050  0.67114457     0.18100
N1200       N  0.92182695  0.38525125  0.61137714    -0.88600
H1201       H  0.90481159  0.39799930  0.83672639     0.35500
H1202       H  0.88832486  0.40913298  0.81267759     0.40600
H1203       H  0.93997479  0.39203678  0.60844925     0.40200
H1204       H  0.91495803  0.38860431  0.57823135     0.35100
C1205       C  0.98419075  0.43201994  0.66379542    -0.26600
C1206       C  0.97382298  0.44612249  0.66969683    -0.14700
C1207       C  0.98886146  0.46733077  0.69781599     0.35900
C1208       C  0.01341564  0.47800464  0.69233864    -0.26100
C1209       C  0.02394633  0.46801960  0.66193740    -0.15300
C1210       C  0.00939075  0.44277978  0.66005376     0.37000
N1211       N  0.01888909  0.42762927  0.65492097    -0.89600
H1212       H  0.97323314  0.41354348  0.65468389     0.18100
H1213       H  0.02419556  0.49490330  0.71082666     0.18100
N1214       N  0.98081826  0.47927343  0.73092612    -0.88600
H1215       H  0.01390792  0.41694951  0.68813622     0.35500
H1216       H  0.03728730  0.43734243  0.65482093     0.40600
H1217       H  0.96270786  0.47103721  0.73435314     0.40200
H1218       H  0.98640370  0.49555294  0.71409750     0.35100
C1219       C  0.92443497  0.42995466  0.55960587    -0.26600
C1220       C  0.94555277  0.43383823  0.58391290    -0.14700
C1221       C  0.96292989  0.43532550  0.54937106     0.35900
C1222       C  0.95896411  0.43197930  0.49604391    -0.26100
C1223       C  0.93966027  0.43108723  0.47055705    -0.15300
C1224       C  0.92139835  0.42911349  0.50471614     0.37000
N1225       N  0.90016236  0.42766368  0.48593204    -0.89600
H1226       H  0.91035764  0.42869977  0.58386600     0.18100
H1227       H  0.97400609  0.43424133  0.47581546     0.18100
N1228       N  0.98626496  0.44307737  0.56549611    -0.88600
H1229       H  0.88577568  0.41223119  0.50099786     0.35500
H1230       H  0.89873270  0.42591406  0.44566131     0.40600
H1231       H  0.99773666  0.45845859  0.54491865     0.40200
H1232       H  0.98974836  0.42981802  0.55593208     0.35100
C1233       C  0.08853664  0.61437491  0.29063793    -0.26600
C1234       C  0.10438141  0.63536516  0.31623779    -0.14700
C1235       C  0.09937235  0.63825689  0.36832876     0.35900
C1236       C  0.07974514  0.61978854  0.39399802    -0.26100
C1237       C  0.06522928  0.59753019  0.37030361    -0.15300
C1238       C  0.06927228  0.59568811  0.31664212     0.37000
N1239       N  0.05443957  0.57450024  0.28835415    -0.89600
H1240       H  0.09168027  0.61183741  0.25037228     0.18100
H1241       H  0.07629412  0.62315557  0.43324015     0.18100
N1242       N  0.11374988  0.65966323  0.39641732    -0.88600
H1243       H  0.06494639  0.56826317  0.27326197     0.35500
H1244       H  0.04714338  0.57864816  0.25700242     0.40600
H1245       H  0.11494608  0.67365588  0.37488355     0.40200
H1246       H  0.13062922  0.66218209  0.40094590     0.35100
C1247       C  0.06726393  0.55267627  0.37865410    -0.26600
C1248       C  0.04773898  0.55373807  0.39918833    -0.14700
C1249       C  0.03049874  0.53341899  0.42532316     0.35900
C1250       C  0.03272563  0.51386728  0.43211559    -0.26100
C1251       C  0.04911352  0.51071455  0.40375367    -0.15300
C1252       C  0.06768686  0.53126056  0.37891752     0.37000
N1253       N  0.08719128  0.53096185  0.35534525    -0.89600
H1254       H  0.08223940  0.56821232  0.36201375     0.18100
H1255       H  0.01914333  0.49921688  0.45425270     0.18100
N1256       N  0.00845054  0.53102971  0.43750897    -0.88600
H1257       H  0.10268343  0.54370451  0.37362042     0.35500
H1258       H  0.08809669  0.53576794  0.31622372     0.40600
H1259       H  0.99633686  0.51695909  0.41497840     0.40200
H1260       H  0.00430566  0.52731776  0.47649564     0.35100
C1261       C  0.07010100  0.59278129  0.72240334    -0.26600
C1262       C  0.06827806  0.59777298  0.66976680    -0.14700
C1263       C  0.08291337  0.62198602  0.65414316     0.35900
C1264       C  0.10107042  0.63804241  0.68701805    -0.26100
C1265       C  0.10455352  0.63150923  0.73656032    -0.15300
C1266       C  0.08797721  0.60877720  0.75515904     0.37000
N1267       N  0.08949400  0.60068183  0.80597799    -0.89600
H1268       H  0.05892399  0.57533309  0.73739641     0.18100
H1269       H  0.11277021  0.65589911  0.67330722     0.18100
N1270       N  0.07916555  0.63182168  0.60804423    -0.88600
H1271       H  0.08832912  0.61153844  0.83385559     0.35500
H1272       H  0.10569847  0.60151927  0.80939399     0.40600
H1273       H  0.06132899  0.62648908  0.60465001     0.40200
H1274       H  0.08558247  0.62767243  0.57522950     0.35100
C1275       C  0.07128845  0.55335484  0.66422145    -0.26600
C1276       C  0.05371609  0.55492262  0.63539776    -0.14700
C1277       C  0.03932100  0.53518023  0.60384970     0.35900
C1278       C  0.03993722  0.51449061  0.60790960    -0.26100
C1279       C  0.05463087  0.51117184  0.64174464    -0.15300
C1280       C  0.07139374  0.53196646  0.66976274     0.37000
N1281       N  0.08861965  0.53279946  0.70477666    -0.89600
H1282       H  0.08508328  0.56855530  0.68401835     0.18100
H1283       H  0.02814437  0.49998757  0.58313563     0.18100
N1284       N  0.02454557  0.53618466  0.56475685    -0.88600
H1285       H  0.09834171  0.52618974  0.68754708     0.35500
H1286       H  0.08029817  0.52394839  0.73907052     0.40600
H1287       H  0.01796582  0.52136998  0.54132721     0.40200
H1288       H  0.01034458  0.53601822  0.58287753     0.35100
C1289       C  0.03283875  0.58280173  0.54918502    -0.26600
C1290       C  0.05186725  0.58375885  0.57572832    -0.14700
C1291       C  0.07062199  0.58631222  0.54320778     0.35900
C1292       C  0.06858844  0.58577472  0.48803181    -0.26100
C1293       C  0.04764937  0.58149804  0.46220372    -0.15300
C1294       C  0.02954961  0.57940680  0.49568035     0.37000
N1295       N  0.00612832  0.57074663  0.47858911    -0.89600
H1296       H  0.01760606  0.58053535  0.56851285     0.18100
H1297       H  0.08312366  0.58730473  0.46506088     0.18100
N1298       N  0.09156978  0.58879068  0.56600001    -0.88600
H1299       H  0.00185035  0.58341764  0.48842901     0.35500
H1300       H  0.99492612  0.55519297  0.49887768     0.40600
H1301       H  0.09349536  0.57494640  0.55269109     0.40200
H1302       H  0.10604857  0.60454826  0.55246843     0.35100
C1303       C  0.90143894  0.52327193  0.39260358    -0.26600
C1304       C  0.92407227  0.53268863  0.36895805    -0.14700
C1305       C  0.92634665  0.54231500  0.31782083     0.35900
C1306       C  0.90641764  0.54047748  0.29224851    -0.26100
C1307       C  0.88411514  0.53010918  0.31647071    -0.15300
C1308       C  0.88203699  0.52206614  0.36773907     0.37000
N1309       N  0.85974011  0.51135361  0.39448632    -0.89600
H1310       H  0.89765376  0.51610919  0.43101674     0.18100
H1311       H  0.90839017  0.54693779  0.25264579     0.18100
N1312       N  0.94843560  0.55368301  0.29050161    -0.88600
H1313       H  0.86196231  0.52072864  0.42884976     0.35500
H1314       H  0.85492357  0.49412757  0.40454416     0.40600
H1315       H  0.95292687  0.57097995  0.28228781     0.40200
H1316       H  0.94615382  0.54502016  0.25504440     0.35100
C1317       C  0.92289012  0.46293773  0.37348185    -0.26600
C1318       C  0.93838182  0.46012340  0.40743856    -0.14700
C1319       C  0.95268884  0.47972241  0.43902441     0.35900
C1320       C  0.95403095  0.50119134  0.43239810    -0.26100
C1321       C  0.94010984  0.50501774  0.39740918    -0.15300
C1322       C  0.92352812  0.48485053  0.36836779     0.37000
N1323       N  0.90784203  0.48635057  0.33241420    -0.89600
H1324       H  0.91001101  0.44835491  0.35053088     0.18100
H1325       H  0.96546198  0.51516903  0.45865809     0.18100
N1326       N  0.96501106  0.47760176  0.48165797    -0.88600
H1327       H  0.89051315  0.47392561  0.34341283     0.35500
H1328       H  0.91091119  0.48177639  0.29549979     0.40600
H1329       H  0.95871269  0.48186780  0.51450705     0.40200
H1330       H  0.98300581  0.48902264  0.47712288     0.35100
C1331       C  0.98444533  0.57263056  0.38171813    -0.26600
C1332       C  0.97032399  0.54776970  0.37544278    -0.14700
C1333       C  0.98225218  0.53921913  0.34378945     0.35900
C1334       C  0.00710651  0.55058809  0.34505473    -0.26100
C1335       C  0.02067647  0.57066707  0.37597564    -0.15300
C1336       C  0.00987866  0.58442030  0.38182965     0.37000
N1337       N  0.02401596  0.60888328  0.39510877    -0.89600
H1338       H  0.97610749  0.58285190  0.38596805     0.49300
H1339       H  0.01555948  0.54290117  0.32413891     0.18100
N1340       N  0.97029482  0.52114678  0.30552277    -0.88600
H1341       H  0.01320856  0.61594876  0.40103422     0.35500
H1342       H  0.03469907  0.61763646  0.36286604     0.40600
H1343       H  0.95288255  0.51689415  0.30064954     0.40200
H1344       H  0.97043750  0.50623340  0.31769039     0.35100
C1345       C  0.93086271  0.53053643  0.72377340    -0.26600
C1346       C  0.93032458  0.53359911  0.66938169    -0.14700
C1347       C  0.91431051  0.54061648  0.65135749     0.35900
C1348       C  0.89723388  0.53998012  0.68515721    -0.26100
C1349       C  0.89588840  0.53358410  0.73748939    -0.15300
C1350       C  0.91377269  0.53014771  0.75753288     0.37000
N1351       N  0.91435215  0.52558542  0.81186935    -0.89600
H1352       H  0.94365982  0.52672856  0.73999421     0.18100
H1353       H  0.88434492  0.54382674  0.66945571     0.18100
N1354       N  0.91503566  0.54872721  0.59929410    -0.88600
H1355       H  0.93072259  0.53855436  0.82648786     0.35500
H1356       H  0.91321433  0.50930466  0.81569415     0.40600
H1357       H  0.91808352  0.56585430  0.60102979     0.40200
H1358       H  0.89851647  0.53792859  0.58217336     0.35100
C1359       C  0.92663827  0.46248358  0.66804704    -0.26600
C1360       C  0.94580743  0.46149738  0.64567754    -0.14700
C1361       C  0.96223268  0.48157853  0.61729594     0.35900
C1362       C  0.95881371  0.50027713  0.60804734    -0.26100
C1363       C  0.94272906  0.50358262  0.63706233    -0.15300
C1364       C  0.92551548  0.48347465  0.66634078     0.37000
N1365       N  0.90598936  0.48319570  0.69143940    -0.89600
H1366       H  0.91242054  0.44721171  0.68727119     0.18100
H1367       H  0.97139791  0.51433500  0.58302144     0.18100
N1368       N  0.98425862  0.48434487  0.60264045    -0.88600
H1369       H  0.90626998  0.47940092  0.73088559     0.35500
H1370       H  0.89038375  0.46943752  0.67560513     0.40600
H1371       H  0.98741516  0.48791594  0.56334531     0.40200
H1372       H  0.99668299  0.49899292  0.62324350     0.35100
C1373       C  0.98491276  0.53645906  0.68283178    -0.26600
C1374       C  0.97399928  0.54659128  0.65430948    -0.14700
C1375       C  0.98854385  0.57183511  0.65266706     0.35900
C1376       C  0.01369858  0.58266160  0.65703037    -0.26100
C1377       C  0.02432983  0.56867113  0.66020360    -0.15300
C1378       C  0.00945047  0.54685040  0.68617251     0.37000
N1379       N  0.01765765  0.53731576  0.72525162    -0.89600
H1380       H  0.97408367  0.52020278  0.70379453     0.18100
H1381       H  0.02469195  0.60139350  0.64983790     0.18100
N1382       N  0.97891687  0.58697674  0.65073647    -0.88600
H1383       H  0.02994970  0.53329246  0.71160646     0.35500
H1384       H  0.02394394  0.54861873  0.75715889     0.40600
H1385       H  0.96066889  0.57733708  0.64586412     0.40200
H1386       H  0.98628990  0.59843097  0.61897945     0.35100
C1387       C  0.95766556  0.55335181  0.54464950    -0.26600
C1388       C  0.94354237  0.53247584  0.57374064    -0.14700
C1389       C  0.92455983  0.51395385  0.54489526     0.35900
C1390       C  0.92498017  0.51438953  0.49062325    -0.26100
C1391       C  0.94120601  0.53434758  0.46043446    -0.15300
C1392       C  0.95413523  0.55508962  0.49047260     0.37000
N1393       N  0.96089361  0.57764904  0.46891014    -0.89600
H1394       H  0.97063774  0.56901931  0.56340099     0.18100
H1395       H  0.91226698  0.49810202  0.47175944     0.18100
N1396       N  0.90426014  0.49426419  0.56845777    -0.88600
H1397       H  0.96882189  0.59085789  0.49706129     0.35500
H1398       H  0.94542833  0.57712380  0.45749631     0.40600
H1399       H  0.90028939  0.49869731  0.60435513     0.40200
H1400       H  0.90691725  0.48004707  0.57116232     0.35100
C1401       C  0.46642439  0.41114583  0.32749677    -0.26600
C1402       C  0.48231630  0.42019455  0.36996384    -0.14700
C1403       C  0.49842055  0.41164924  0.37220650     0.35900
C1404       C  0.49214017  0.38990159  0.35121831    -0.26100
C1405       C  0.47429280  0.37916882  0.31431544    -0.15300
C1406       C  0.46234222  0.39085763  0.29972649     0.37000
N1407       N  0.44656277  0.38263830  0.25631588    -0.89600
H1408       H  0.45826435  0.42051403  0.31296268     0.18100
H1409       H  0.50413400  0.38346849  0.35717362     0.18100
N1410       N  0.52314218  0.42598539  0.38406594    -0.88600
H1411       H  0.45276444  0.39630862  0.22900644     0.35500
H1412       H  0.42999034  0.37901761  0.26939460     0.40600
H1413       H  0.52645214  0.43244021  0.42161067     0.40200
H1414       H  0.53143344  0.43966061  0.35698216     0.35100
C1415       C  0.47900042  0.41641006  0.72573298    -0.26600
C1416       C  0.47118850  0.41164993  0.67364786    -0.14700
C1417       C  0.46052122  0.38765937  0.65734133     0.35900
C1418       C  0.46257285  0.37121659  0.68821688    -0.26100
C1419       C  0.47360404  0.37727424  0.73690120    -0.15300
C1420       C  0.48087149  0.40000200  0.75671748     0.37000
N1421       N  0.49119070  0.40751771  0.80723646    -0.89600
H1422       H  0.48538060  0.43377946  0.74166109     0.18100
H1423       H  0.45556148  0.35350708  0.67352537     0.18100
N1424       N  0.44664773  0.37926767  0.61093151    -0.88600
H1425       H  0.50680450  0.40710061  0.80874719     0.35500
H1426       H  0.47923073  0.39607053  0.83522281     0.40600
H1427       H  0.42951713  0.36609062  0.62139426     0.40200
H1428       H  0.45381331  0.37161701  0.58725975     0.35100
C1429       C  0.48406950  0.41900264  0.55407094    -0.26600
C1430       C  0.46901688  0.42518103  0.57961120    -0.14700
C1431       C  0.45282038  0.42674114  0.54603157     0.35900
C1432       C  0.45739394  0.43009226  0.49252840    -0.26100
C1433       C  0.47596965  0.42913158  0.46677351    -0.15300
C1434       C  0.48542140  0.41818773  0.49896295     0.37000
N1435       N  0.49567074  0.40553600  0.47805006    -0.89600
H1436       H  0.49492584  0.41456835  0.57732205     0.18100
H1437       H  0.44592192  0.43451969  0.47345244     0.18100
N1438       N  0.43303809  0.42779309  0.56439883    -0.88600
H1439       H  0.51213838  0.41173898  0.49550830     0.35500
H1440       H  0.48497878  0.38788986  0.48914658     0.40600
H1441       H  0.41780304  0.41436409  0.54660041     0.40200
H1442       H  0.43525590  0.44395358  0.55315977     0.35100
C1443       C  0.39969114  0.47317882  0.34438418    -0.26600
C1444       C  0.40070847  0.47648024  0.39893863    -0.14700
C1445       C  0.38101969  0.47663538  0.42229808     0.35900
C1446       C  0.36282836  0.47540213  0.39117358    -0.26100
C1447       C  0.36340792  0.47449020  0.33668771    -0.15300
C1448       C  0.38157216  0.47203346  0.31356277     0.37000
N1449       N  0.38288404  0.46935819  0.25851263    -0.89600
H1450       H  0.41415673  0.47322328  0.32432488     0.18100
H1451       H  0.34884696  0.47674503  0.41005236     0.18100
N1452       N  0.37937991  0.47888435  0.47741253    -0.88600
H1453       H  0.38588532  0.48465015  0.23963613     0.35500
H1454       H  0.36685769  0.45496387  0.24610157     0.40600
H1455       H  0.36404627  0.46383952  0.49079172     0.40200
H1456       H  0.37734391  0.49326809  0.48475172     0.35100
C1457       C  0.42981426  0.45114502  0.38721714    -0.26600
C1458       C  0.43965562  0.47403773  0.40911060    -0.14700
C1459       C  0.46365219  0.48485252  0.42229950     0.35900
C1460       C  0.47710755  0.47453590  0.41149756    -0.26100
C1461       C  0.46802267  0.45127877  0.39383082    -0.15300
C1462       C  0.44293043  0.43923620  0.38289958     0.37000
N1463       N  0.42955440  0.41412485  0.37774542    -0.89600
H1464       H  0.41102102  0.44106139  0.37965185     0.18100
H1465       H  0.49506129  0.48485191  0.42306775     0.18100
N1466       N  0.47484274  0.50651373  0.44981898    -0.88600
H1467       H  0.41974027  0.41006219  0.34340960     0.35500
H1468       H  0.41754343  0.40711077  0.40875744     0.40600
H1469       H  0.48113675  0.50389112  0.48487122     0.40200
H1470       H  0.48915736  0.51837018  0.42732404     0.35100
C1471       C  0.39013033  0.48875003  0.66950370    -0.26600
C1472       C  0.40571453  0.48304247  0.69447765    -0.14700
C1473       C  0.39974237  0.47445335  0.74675711     0.35900
C1474       C  0.37992681  0.47293003  0.77178001    -0.26100
C1475       C  0.36514903  0.47912594  0.74628366    -0.15300
C1476       C  0.37002285  0.48637220  0.69400947     0.37000
N1477       N  0.35512967  0.49236365  0.66574500    -0.89600
H1478       H  0.39322503  0.49541959  0.63017254     0.18100
H1479       H  0.37639620  0.46728657  0.81213522     0.18100
N1480       N  0.41349567  0.46728828  0.77562307    -0.88600
H1481       H  0.34895067  0.48169306  0.63266685     0.35500
H1482       H  0.36539259  0.50988686  0.65343847     0.40600
H1483       H  0.40253782  0.44959867  0.78614263     0.40200
H1484       H  0.41923691  0.47723149  0.80980299     0.35100
C1485       C  0.42124101  0.44252008  0.67131270    -0.26600
C1486       C  0.43448143  0.46690523  0.68289830    -0.14700
C1487       C  0.45615691  0.47344231  0.70941553     0.35900
C1488       C  0.46812634  0.46160659  0.69741147    -0.26100
C1489       C  0.45782317  0.44121866  0.66590594    -0.15300
C1490       C  0.43266079  0.42910371  0.66647560     0.37000
N1491       N  0.41909931  0.40414975  0.65768029    -0.89600
H1492       H  0.40236713  0.43396659  0.66607190     0.18100
H1493       H  0.48569233  0.46867385  0.71313688     0.18100
N1494       N  0.46610569  0.49105575  0.74961555    -0.88600
H1495       H  0.40105961  0.39833165  0.65723433     0.35500
H1496       H  0.42175845  0.39599948  0.68963061     0.40600
H1497       H  0.45567559  0.49826446  0.75792536     0.40200
H1498       H  0.48284519  0.50458435  0.73791655     0.35100
C1499       C  0.40868863  0.46251549  0.57322171    -0.26600
C1500       C  0.42147374  0.48373259  0.60222372    -0.14700
C1501       C  0.43103597  0.50430064  0.57097510     0.35900
C1502       C  0.43684684  0.50339777  0.51972123    -0.26100
C1503       C  0.42342136  0.48364645  0.48823640    -0.15300
C1504       C  0.40908687  0.46224406  0.51736047     0.37000
N1505       N  0.39562891  0.43980045  0.49259444    -0.89600
H1506       H  0.39811547  0.44592566  0.59270004     0.18100
H1507       H  0.45218209  0.51909476  0.50613098     0.18100
N1508       N  0.43510783  0.52636682  0.59048647    -0.88600
H1509       H  0.40720000  0.43581790  0.47405844     0.35500
H1510       H  0.38416257  0.44020922  0.46537928     0.40600
H1511       H  0.42415554  0.53072536  0.57030349     0.40200
H1512       H  0.45262610  0.53944082  0.58251253     0.35100
C1513       C  0.61454283  0.55472909  0.38053214    -0.26600
C1514       C  0.59149831  0.54545632  0.36112762    -0.14700
C1515       C  0.59062883  0.54488564  0.30573685     0.35900
C1516       C  0.60691059  0.54146574  0.27760140    -0.26100
C1517       C  0.62608612  0.54203380  0.30271641    -0.15300
C1518       C  0.63102476  0.55094084  0.35412102     0.37000
N1519       N  0.65240675  0.55648911  0.38025342    -0.89600
H1520       H  0.62006882  0.56521305  0.41542978     0.18100
H1521       H  0.60463018  0.53864574  0.23593891     0.18100
N1522       N  0.57702130  0.55225397  0.27683878    -0.88600
H1523       H  0.66673293  0.56805612  0.35678719     0.35500
H1524       H  0.65267404  0.54097752  0.38550725     0.40600
H1525       H  0.58092117  0.56871921  0.29060502     0.40200
H1526       H  0.55916968  0.54049080  0.28172775     0.35100
C1527       C  0.51853277  0.47118375  0.35214149    -0.26600
C1528       C  0.51066908  0.46068478  0.40229222    -0.14700
C1529       C  0.52837996  0.47059874  0.44163253     0.35900
C1530       C  0.55029745  0.49082754  0.43074300    -0.26100
C1531       C  0.55332352  0.50607309  0.38869474    -0.15300
C1532       C  0.54042202  0.49268788  0.34456447     0.37000
N1533       N  0.54939953  0.49959179  0.29275479    -0.89600
H1534       H  0.50746318  0.46279350  0.31855749     0.18100
H1535       H  0.56360033  0.49603968  0.46042400     0.18100
N1536       N  0.52540241  0.46070228  0.49244770    -0.88600
H1537       H  0.53620676  0.49899931  0.26922495     0.35500
H1538       H  0.55283933  0.48690554  0.27819176     0.40600
H1539       H  0.52985498  0.47406386  0.51963157     0.40200
H1540       H  0.53785984  0.45557302  0.49715430     0.35100
C1541       C  0.59736617  0.51173093  0.64062010    -0.26600
C1542       C  0.59010425  0.52701188  0.66030824    -0.14700
C1543       C  0.60388532  0.54236264  0.70163672     0.35900
C1544       C  0.62208124  0.54022282  0.72444842    -0.26100
C1545       C  0.62800773  0.52395842  0.70638160    -0.15300
C1546       C  0.61588649  0.51011536  0.66256003     0.37000
N1547       N  0.62102762  0.49331756  0.64080580    -0.89600
H1548       H  0.58783555  0.50019180  0.60835007     0.18100
H1549       H  0.63150792  0.55130767  0.75737707     0.18100
N1550       N  0.59988583  0.56020289  0.72150131    -0.88600
H1551       H  0.61854407  0.48104817  0.66956579     0.35500
H1552       H  0.63864677  0.50219447  0.62836135     0.40600
H1553       H  0.61544704  0.57652881  0.71683025     0.40200
H1554       H  0.59622977  0.55722596  0.76137184     0.35100
C1555       C  0.52277652  0.49700508  0.63274815    -0.26600
C1556       C  0.54464510  0.50002489  0.64586355    -0.14700
C1557       C  0.54229621  0.47882556  0.66806294     0.35900
C1558       C  0.52027250  0.45665103  0.66452929    -0.26100
C1559       C  0.50033073  0.45454263  0.63802424    -0.15300
C1560       C  0.50471604  0.47567983  0.61442733     0.37000
N1561       N  0.49214779  0.47641087  0.57020894    -0.89600
H1562       H  0.52083877  0.51186265  0.62796680     0.18100
H1563       H  0.51928540  0.44140422  0.68242088     0.18100
N1564       N  0.56045073  0.47954564  0.69964494    -0.88600
H1565       H  0.47437752  0.46665095  0.57850117     0.35500
H1566       H  0.49530998  0.46858088  0.53875773     0.40600
H1567       H  0.56454874  0.46736405  0.68473860     0.40200
H1568       H  0.55367693  0.47408493  0.73726366     0.35100
C1569       C  0.55269741  0.52595788  0.54277324    -0.26600
C1570       C  0.57182389  0.52953151  0.57272501    -0.14700
C1571       C  0.59322898  0.53835736  0.54294129     0.35900
C1572       C  0.59262739  0.53892689  0.48721464    -0.26100
C1573       C  0.57297721  0.53679400  0.45871024    -0.15300
C1574       C  0.55265078  0.52928713  0.48966931     0.37000
N1575       N  0.53003997  0.52033609  0.46605131    -0.89600
H1576       H  0.53626199  0.52010521  0.55877419     0.18100
H1577       H  0.60682077  0.53835612  0.46833692     0.18100
N1578       N  0.61575638  0.54757520  0.56783211    -0.88600
H1579       H  0.52459154  0.53217917  0.47327444     0.35500
H1580       H  0.51808581  0.50439531  0.48397618     0.40600
H1581       H  0.61909668  0.56257125  0.58850719     0.40200
H1582       H  0.62935633  0.55321647  0.54031950     0.35100
C1583       C  0.49365559  0.60749076  0.39502296    -0.26600
C1584       C  0.51050655  0.60084207  0.38516706    -0.14700
C1585       C  0.52723735  0.61335546  0.34447826     0.35900
C1586       C  0.52679514  0.63176003  0.31730253    -0.26100
C1587       C  0.51024970  0.63835859  0.32950484    -0.15300
C1588       C  0.49365244  0.62602574  0.36910657     0.37000
N1589       N  0.47570568  0.63135895  0.38156117    -0.89600
H1590       H  0.48007280  0.59830790  0.42406253     0.18100
H1591       H  0.53918858  0.64060035  0.28562006     0.18100
N1592       N  0.54413585  0.60720136  0.32839467    -0.88600
H1593       H  0.47704008  0.63555743  0.42113469     0.35500
H1594       H  0.45919357  0.61623649  0.37530872     0.40600
H1595       H  0.56103005  0.62211416  0.33188641     0.40200
H1596       H  0.54125717  0.60245803  0.28909472     0.35100
C1597       C  0.45345611  0.52149852  0.36183342    -0.26600
C1598       C  0.43927816  0.51334691  0.40749850    -0.14700
C1599       C  0.43976930  0.53208263  0.43562501     0.35900
C1600       C  0.46196181  0.55314135  0.44086772    -0.26100
C1601       C  0.48044940  0.55857864  0.40487506    -0.15300
C1602       C  0.47162043  0.54573675  0.35770761     0.37000
N1603       N  0.48249216  0.55608876  0.30849978    -0.89600
H1604       H  0.45100156  0.50940820  0.33083398     0.18100
H1605       H  0.46448532  0.56484636  0.47280679     0.18100
N1606       N  0.41946476  0.52880486  0.46360876    -0.88600
H1607       H  0.47950664  0.56989456  0.30138181     0.35500
H1608       H  0.47405091  0.54382802  0.27870961     0.40600
H1609       H  0.40700368  0.52657812  0.43565764     0.40200
H1610       H  0.42364573  0.54422104  0.48358134     0.35100
C1611       C  0.51962747  0.55074083  0.36874855    -0.26600
C1612       C  0.52606191  0.57092551  0.39887941    -0.14700
C1613       C  0.54985677  0.58201752  0.41735732     0.35900
C1614       C  0.56406589  0.57145022  0.41012443    -0.26100
C1615       C  0.55544497  0.54899511  0.38610612    -0.15300
C1616       C  0.53299732  0.53997751  0.36212335     0.37000
N1617       N  0.52248571  0.51953799  0.33020422    -0.89600
H1618       H  0.50320570  0.54084172  0.35061296     0.18100
H1619       H  0.58147841  0.58009929  0.42748536     0.18100
N1620       N  0.55962905  0.60375026  0.44516588    -0.88600
H1621       H  0.50606016  0.50725841  0.34586444     0.35500
H1622       H  0.51931018  0.52411915  0.29339318     0.40600
H1623       H  0.57490380  0.61627708  0.42554500     0.40200
H1624       H  0.56461919  0.60117368  0.48201534     0.35100
C1625       C  0.51875323  0.59575350  0.73953457    -0.26600
C1626       C  0.52582753  0.60037135  0.68676940    -0.14700
C1627       C  0.53788934  0.62459339  0.67165070     0.35900
C1628       C  0.53515068  0.64086984  0.70158809    -0.26100
C1629       C  0.52286190  0.63427083  0.74905407    -0.15300
C1630       C  0.51660387  0.61201863  0.77019642     0.37000
N1631       N  0.50637381  0.60455459  0.82102764    -0.89600
H1632       H  0.51230056  0.57841470  0.75584648     0.18100
H1633       H  0.54231951  0.65865769  0.68702644     0.18100
N1634       N  0.55358056  0.63326870  0.62778262    -0.88600
H1635       H  0.49023634  0.60395585  0.82227553     0.35500
H1636       H  0.51795208  0.61662816  0.84840541     0.40600
H1637       H  0.57041629  0.64542896  0.64177483     0.40200
H1638       H  0.54873776  0.64282734  0.60369674     0.35100
C1639       C  0.49297418  0.53477494  0.65358996    -0.26600
C1640       C  0.49548615  0.55623384  0.66654218    -0.14700
C1641       C  0.47364927  0.55434017  0.68410075     0.35900
C1642       C  0.45265109  0.53146448  0.69171724    -0.26100
C1643       C  0.45081237  0.51085140  0.66939192    -0.15300
C1644       C  0.47169651  0.51479704  0.64444432     0.37000
N1645       N  0.47251420  0.49943505  0.60698773    -0.89600
H1646       H  0.50773288  0.53361878  0.64309775     0.18100
H1647       H  0.43691742  0.53050143  0.70734211     0.18100
N1648       N  0.47084911  0.57434949  0.68857064    -0.88600
H1649       H  0.45701256  0.48355966  0.60258761     0.35500
H1650       H  0.47570998  0.50778515  0.57094689     0.40600
H1651       H  0.48330879  0.58846147  0.66609605     0.40200
H1652       H  0.47225304  0.57910039  0.72773798     0.35100
C1653       C  0.57199166  0.56698613  0.62644802    -0.26600
C1654       C  0.56330596  0.54576951  0.65506394    -0.14700
C1655       C  0.54925343  0.54377156  0.69951569     0.35900
C1656       C  0.53922643  0.55825418  0.70354808    -0.26100
C1657       C  0.54166860  0.57410445  0.66309681    -0.15300
C1658       C  0.56191992  0.58126305  0.63058018     0.37000
N1659       N  0.57314449  0.60278395  0.60157693    -0.89600
H1660       H  0.58603079  0.57211236  0.59819201     0.18100
H1661       H  0.52668922  0.55441254  0.73474950     0.18100
N1662       N  0.54448546  0.52725394  0.74087705    -0.88600
H1663       H  0.57988765  0.61664775  0.62806543     0.35500
H1664       H  0.56139639  0.60366277  0.57614258     0.40600
H1665       H  0.55456224  0.51931395  0.73707158     0.40200
H1666       H  0.52662234  0.51411882  0.73922031     0.35100
C1667       C  0.51435656  0.59926653  0.56644984    -0.26600
C1668       C  0.51748967  0.58166480  0.59017026    -0.14700
C1669       C  0.51565438  0.56455366  0.55447297     0.35900
C1670       C  0.50783898  0.56324266  0.50367626    -0.26100
C1671       C  0.50984191  0.58249333  0.47730581    -0.15300
C1672       C  0.51430456  0.60184503  0.51101126     0.37000
N1673       N  0.52024282  0.62464248  0.49264388    -0.89600
H1674       H  0.51261906  0.61172939  0.59002112     0.18100
H1675       H  0.50366824  0.54790843  0.48186822     0.18100
N1676       N  0.52528288  0.55039037  0.56576808    -0.88600
H1677       H  0.50502778  0.62496413  0.48367055     0.35500
H1678       H  0.53245902  0.63011575  0.46209525     0.40600
H1679       H  0.54016999  0.55671985  0.54186564     0.40200
H1680       H  0.51280633  0.53318214  0.55535276     0.35100
loop_ 
_geom_bond_atom_site_label_1 
_geom_bond_atom_site_label_2 
_geom_bond_distance 
_geom_bond_site_symmetry_2 
_ccdc_geom_bond_type 
C1         C1626   1.565       .  S
C1         C1640   1.610       .  S
C1         C1657   1.611       .  S
C1         C1668   1.605       .  S
C2         C1584   1.563       .  S
C2         C1601   1.604       .  S
C2         C1612   1.631       .  S
C2         C1671   1.601       .  S
C3         C1542   1.564       .  S
C3         C1556   1.623       .  S
C3         C1570   1.615       .  S
C3         C1654   1.596       .  S
C4         C1514   1.580       .  S
C4         C1531   1.630       .  S
C4         C1573   1.608       .  S
C4         C1615   1.619       .  S
C5         C1472   1.568       .  S
C5         C1486   1.612       .  S
C5         C1500   1.611       .  S
C5         C1643   1.591       .  S
C6         C1444   1.568       .  S
C6         C1458   1.595       .  S
C6         C1503   1.602       .  S
C6         C1598   1.605       .  S
C7         C1416   1.566       .  S
C7         C1430   1.588       .  S
C7         C1489   1.599       .  S
C7         C1559   1.600       .  S
C8         C1402   1.585       .  S
C8         C1433   1.623       .  S
C8         C1461   1.629       .  S
C8         C1528   1.593       .  S
C9         C1346   1.565       .  S
C9         C1363   1.594       .  S
C9         C1374   1.614       .  S
C9         C1388   1.592       .  S
C10        C1304   1.583       .  S
C10        C1321   1.595       .  S
C10        C1332   1.621       .  S
C10        C1391   1.618       .  S
C11        C1262   1.566       .  S
C11        C1276   1.595       .  S
C11        C1290   1.588       .  S
C11        C1377   1.606       .  S
C12        C1237   1.559       .  S
C12        C1248   1.584       .  S
C12        C1293   1.595       .  S
C12        C1335   1.603       .  S
C13        C1192   1.566       .  S
C13        C1206   1.606       .  S
C13        C1220   1.590       .  S
C13        C1360   1.582       .  S
C14        C1164   1.562       .  S
C14        C1178   1.602       .  S
C14        C1223   1.595       .  S
C14        C1318   1.601       .  S
C15        C1136   1.560       .  S
C15        C1150   1.596       .  S
C15        C1209   1.611       .  S
C15        C1279   1.607       .  S
C16        C1122   1.582       .  S
C16        C1153   1.602       .  S
C16        C1181   1.623       .  S
C16        C1251   1.586       .  S
In17         O19   2.211       .  S
In17         O20   2.261       .  S
In17         O28   2.283       .  S
In17         O22   2.231       .  S
In17         O24   2.268       .  S
In17         O25   2.272       .  S
In17         O26   2.234       .  S
In17         O29   2.235       .  S
C18          O24   1.262       .  A
C18          O26   1.258       .  A
C18        C1080   1.487       .  S
O19          C27   1.260       .  A
O20          C27   1.267       .  A
C21          O28   1.265       .  A
C21          O22   1.259       .  A
C21        C1111   1.498       .  S
C23          O25   1.260       .  A
C23          O29   1.260       .  A
C23        C1587   1.486       .  S
C27        C1097   1.480       .  S
In30         O32   2.256       .  S
In30         O33   2.247       .  S
In30         O41   2.273       .  S
In30         O35   2.242       .  S
In30         O37   2.268       .  S
In30         O38   2.261       .  S
In30         O39   2.228       .  S
In30         O42   2.200       .  S
C31          O37   1.263       .  A
C31          O39   1.258       .  A
C31        C1055   1.484       .  S
O32          C40   1.264       .  A
O33          C40   1.256       .  A
C34          O41   1.262       .  A
C34          O35   1.262       .  A
C34        C1108   1.496       .  S
C36          O38   1.264       .  A
C36          O42   1.259       .  A
C36        C1066   1.473       .  S
C40        C1038   1.486       .  S
In43         O45   2.276       .  S
In43         O46   2.233       .  S
In43         O54   2.254       .  S
In43         O48   2.256       .  S
In43         O50   2.278       .  S
In43         O51   2.254       .  S
In43         O52   2.233       .  S
In43         O55   2.215       .  S
C44          O50   1.263       .  A
C44          O52   1.257       .  A
C44        C1010   1.487       .  S
O45          C53   1.265       .  A
O46          C53   1.256       .  A
C47          O54   1.261       .  A
C47          O48   1.261       .  A
C47        C1027   1.490       .  S
C49          O51   1.264       .  A
C49          O55   1.261       .  A
C49        C1094   1.479       .  S
C53        C1629   1.489       .  S
In56         O58   2.204       .  S
In56         O59   2.256       .  S
In56         O67   2.268       .  S
In56         O61   2.244       .  S
In56         O63   2.250       .  S
In56         O64   2.234       .  S
In56         O65   2.237       .  S
In56         O68   2.247       .  S
C57          O63   1.262       .  A
C57          O65   1.260       .  A
C57         C996   1.480       .  S
O58          C66   1.260       .  A
O59          C66   1.263       .  A
C60          O67   1.262       .  A
C60          O61   1.258       .  A
C60        C1024   1.486       .  S
C62          O64   1.257       .  A
C62          O68   1.265       .  A
C62         C985   1.486       .  S
C66        C1069   1.472       .  S
In69         O71   2.228       .  S
In69         O72   2.258       .  S
In69         O80   2.261       .  S
In69         O74   2.255       .  S
In69         O76   2.265       .  S
In69         O77   2.250       .  S
In69         O78   2.231       .  S
In69         O81   2.262       .  S
C70          O76   1.261       .  A
C70          O78   1.259       .  A
C70         C940   1.483       .  S
O71          C79   1.262       .  A
O72          C79   1.264       .  A
C73          O80   1.262       .  A
C73          O74   1.260       .  A
C73         C971   1.488       .  S
C75          O77   1.259       .  A
C75          O81   1.263       .  A
C75        C1125   1.494       .  S
C79         C954   1.483       .  S
In82         O84   2.288       .  S
In82         O85   2.256       .  S
In82         O93   2.268       .  S
In82         O87   2.243       .  S
In82         O89   2.267       .  S
In82         O90   2.274       .  S
In82         O91   2.232       .  S
In82         O94   2.225       .  S
C83          O89   1.261       .  A
C83          O91   1.258       .  A
C83        C1083   1.485       .  S
O84          C92   1.263       .  A
O85          C92   1.256       .  A
C86          O93   1.265       .  A
C86          O87   1.260       .  A
C86         C968   1.490       .  S
C88          O90   1.266       .  A
C88          O94   1.260       .  A
C88         C926   1.483       .  S
C92        C1447   1.502       .  S
In95         O97   2.256       .  S
In95         O98   2.242       .  S
In95        O106   2.271       .  S
In95        O100   2.227       .  S
In95        O102   2.267       .  S
In95        O103   2.267       .  S
In95        O104   2.233       .  S
In95        O107   2.213       .  S
C96         O102   1.261       .  A
C96         O104   1.258       .  A
C96         C898   1.484       .  S
O97         C105   1.262       .  A
O98         C105   1.257       .  A
C99         O106   1.264       .  A
C99         O100   1.260       .  A
C99         C915   1.487       .  S
C101        O103   1.266       .  A
C101        O107   1.260       .  A
C101        C957   1.481       .  S
C105       C1139   1.489       .  S
In108       O110   2.228       .  S
In108       O111   2.263       .  S
In108       O119   2.273       .  S
In108       O113   2.238       .  S
In108       O115   2.264       .  S
In108       O116   2.255       .  S
In108       O117   2.244       .  S
In108       O120   2.245       .  S
C109        O115   1.260       .  A
C109        O117   1.260       .  A
C109       C1013   1.485       .  S
O110        C118   1.262       .  A
O111        C118   1.265       .  A
C112        O119   1.262       .  A
C112        O113   1.259       .  A
C112        C912   1.488       .  S
C114        O116   1.260       .  A
C114        O120   1.261       .  A
C114       C1475   1.486       .  S
C118        C929   1.483       .  S
In121       O123   2.225       .  S
In121       O124   2.277       .  S
In121       O132   2.283       .  S
In121       O126   2.252       .  S
In121       O128   2.254       .  S
In121       O129   2.249       .  S
In121       O130   2.232       .  S
In121       O133   2.274       .  S
C122        O128   1.262       .  A
C122        O130   1.260       .  A
C122       C1052   1.485       .  S
O123        C131   1.259       .  A
O124        C131   1.264       .  A
C125        O132   1.264       .  A
C125        O126   1.259       .  A
C125        C884   1.496       .  S
C127        O129   1.258       .  A
C127        O133   1.264       .  A
C127        C856   1.497       .  S
C131        C870   1.484       .  S
In134       O136   2.270       .  S
In134       O137   2.239       .  S
In134       O145   2.272       .  S
In134       O139   2.248       .  S
In134       O141   2.273       .  S
In134       O142   2.270       .  S
In134       O143   2.231       .  S
In134       O146   2.224       .  S
C135        O141   1.262       .  A
C135        O143   1.258       .  A
C135        C943   1.481       .  S
O136        C144   1.261       .  A
O137        C144   1.258       .  A
C138        O145   1.263       .  A
C138        O139   1.260       .  A
C138        C887   1.494       .  S
C140        O142   1.266       .  A
C140        O146   1.261       .  A
C140        C845   1.487       .  S
C144       C1234   1.489       .  S
In147       O149   2.275       .  S
In147       O150   2.250       .  S
In147       O158   2.269       .  S
In147       O152   2.246       .  S
In147       O154   2.258       .  S
In147       O155   2.282       .  S
In147       O156   2.244       .  S
In147       O159   2.213       .  S
C148        O154   1.260       .  A
C148        O156   1.258       .  A
C148        C999   1.481       .  S
O149        C157   1.263       .  A
O150        C157   1.260       .  A
C151        O158   1.262       .  A
C151        O152   1.259       .  A
C151        C828   1.490       .  S
C153        O155   1.266       .  A
C153        O159   1.258       .  A
C153        C873   1.485       .  S
C157        C814   1.496       .  S
In160       O162   2.228       .  S
In160       O163   2.266       .  S
In160       O171   2.260       .  S
In160       O165   2.242       .  S
In160       O167   2.273       .  S
In160       O168   2.242       .  S
In160       O169   2.231       .  S
In160       O172   2.264       .  S
C161        O167   1.262       .  A
C161        O169   1.257       .  A
C161        C901   1.486       .  S
O162        C170   1.262       .  A
O163        C170   1.265       .  A
C164        O171   1.263       .  A
C164        O165   1.261       .  A
C164        C831   1.487       .  S
C166        O168   1.257       .  A
C166        O172   1.261       .  A
C166       C1265   1.486       .  S
C170        C842   1.486       .  S
In173       O175   2.212       .  S
In173       O176   2.258       .  S
In173       O184   2.270       .  S
In173       O178   2.235       .  S
In173       O180   2.266       .  S
In173       O181   2.276       .  S
In173       O182   2.227       .  S
In173       O185   2.229       .  S
C174        O180   1.262       .  A
C174        O182   1.258       .  A
C174        C772   1.485       .  S
O175        C183   1.261       .  A
O176        C183   1.265       .  A
C177        O184   1.266       .  A
C177        O178   1.260       .  A
C177        C803   1.488       .  S
C179        O181   1.259       .  A
C179        O185   1.261       .  A
C179       C1405   1.485       .  S
C183        C789   1.477       .  S
In186       O188   2.279       .  S
In186       O189   2.230       .  S
In186       O197   2.262       .  S
In186       O191   2.257       .  S
In186       O193   2.264       .  S
In186       O194   2.267       .  S
In186       O195   2.238       .  S
In186       O198   2.215       .  S
C187        O193   1.261       .  A
C187        O195   1.257       .  A
C187        C744   1.484       .  S
O188        C196   1.263       .  A
O189        C196   1.257       .  A
C190        O197   1.262       .  A
C190        O191   1.260       .  A
C190        C800   1.491       .  S
C192        O194   1.266       .  A
C192        O198   1.260       .  A
C192        C758   1.490       .  S
C196        C733   1.483       .  S
In199       O201   2.276       .  S
In199       O202   2.239       .  S
In199       O210   2.276       .  S
In199       O204   2.239       .  S
In199       O206   2.256       .  S
In199       O207   2.267       .  S
In199       O208   2.222       .  S
In199       O211   2.213       .  S
C200        O206   1.263       .  A
C200        O208   1.259       .  A
C200        C702   1.482       .  S
O201        C209   1.265       .  A
O202        C209   1.256       .  A
C203        O210   1.264       .  A
C203        O204   1.258       .  A
C203        C719   1.491       .  S
C205        O207   1.265       .  A
C205        O211   1.259       .  A
C205        C786   1.478       .  S
C209       C1419   1.494       .  S
In212       O214   2.211       .  S
In212       O215   2.281       .  S
In212       O223   2.261       .  S
In212       O217   2.250       .  S
In212       O219   2.255       .  S
In212       O220   2.263       .  S
In212       O221   2.234       .  S
In212       O224   2.259       .  S
C213        O219   1.261       .  A
C213        O221   1.259       .  A
C213        C688   1.476       .  S
O214        C222   1.259       .  A
O215        C222   1.266       .  A
C216        O223   1.262       .  A
C216        O217   1.260       .  A
C216        C716   1.491       .  S
C218        O220   1.261       .  A
C218        O224   1.261       .  A
C218        C677   1.497       .  S
C222        C761   1.488       .  S
In225       O227   2.267       .  S
In225       O228   2.245       .  S
In225       O236   2.262       .  S
In225       O230   2.223       .  S
In225       O232   2.259       .  S
In225       O233   2.260       .  S
In225       O234   2.219       .  S
In225       O237   2.218       .  S
C226        O232   1.261       .  A
C226        O234   1.256       .  A
C226        C632   1.477       .  S
O227        C235   1.263       .  A
O228        C235   1.258       .  A
C229        O236   1.263       .  A
C229        O230   1.260       .  A
C229        C663   1.484       .  S
C231        O233   1.265       .  A
C231        O237   1.259       .  A
C231        C649   1.482       .  S
C235       C1167   1.491       .  S
In238       O240   2.210       .  S
In238       O241   2.253       .  S
In238       O249   2.260       .  S
In238       O243   2.221       .  S
In238       O245   2.260       .  S
In238       O246   2.242       .  S
In238       O247   2.233       .  S
In238       O250   2.241       .  S
C239        O245   1.261       .  A
C239        O247   1.259       .  A
C239        C747   1.479       .  S
O240        C248   1.260       .  A
O241        C248   1.264       .  A
C242        O249   1.263       .  A
C242        O243   1.258       .  A
C242        C660   1.481       .  S
C244        O246   1.257       .  A
C244        O250   1.262       .  A
C244        C607   1.484       .  S
C248        C618   1.476       .  S
In251       O253   2.220       .  S
In251       O254   2.243       .  S
In251       O262   2.248       .  S
In251       O256   2.242       .  S
In251       O258   2.263       .  S
In251       O259   2.220       .  S
In251       O260   2.240       .  S
In251       O263   2.252       .  S
C252        O258   1.260       .  A
C252        O260   1.256       .  A
C252        C579   1.481       .  S
O253        C261   1.262       .  A
O254        C261   1.265       .  A
C255        O262   1.260       .  A
C255        O256   1.260       .  A
C255        C590   1.480       .  S
C257        O259   1.258       .  A
C257        O263   1.263       .  A
C257       C1195   1.481       .  S
C261        C646   1.477       .  S
In264       O266   2.263       .  S
In264       O267   2.240       .  S
In264       O275   2.253       .  S
In264       O269   2.250       .  S
In264       O271   2.258       .  S
In264       O272   2.261       .  S
In264       O273   2.223       .  S
In264       O276   2.217       .  S
C265        O271   1.263       .  A
C265        O273   1.258       .  A
C265        C691   1.477       .  S
O266        C274   1.263       .  A
O267        C274   1.257       .  A
C268        O275   1.260       .  A
C268        O269   1.260       .  A
C268        C593   1.485       .  S
C270        O272   1.264       .  A
C270        O276   1.259       .  A
C270        C621   1.481       .  S
C274        C562   1.487       .  S
In277       O279   2.224       .  S
In277       O280   2.255       .  S
In277       O288   2.282       .  S
In277       O282   2.247       .  S
In277       O284   2.265       .  S
In277       O285   2.273       .  S
In277       O286   2.219       .  S
In277       O289   2.261       .  S
C278        O284   1.261       .  A
C278        O286   1.258       .  A
C278        C635   1.476       .  S
O279        C287   1.261       .  A
O280        C287   1.264       .  A
C281        O288   1.264       .  A
C281        O282   1.257       .  A
C281        C548   1.495       .  S
C283        O285   1.257       .  A
C283        O289   1.263       .  A
C283       C1307   1.493       .  S
C287        C534   1.480       .  S
In290       O292   2.284       .  S
In290       O293   2.255       .  S
In290       O301   2.265       .  S
In290       O295   2.250       .  S
In290       O297   2.273       .  S
In290       O298   2.278       .  S
In290       O299   2.229       .  S
In290       O302   2.231       .  S
C291        O297   1.261       .  A
C291        O299   1.258       .  A
C291        C775   1.484       .  S
O292        C300   1.261       .  A
O293        C300   1.257       .  A
C294        O301   1.265       .  A
C294        O295   1.262       .  A
C294        C551   1.495       .  S
C296        O298   1.264       .  A
C296        O302   1.260       .  A
C296        C520   1.487       .  S
C300       C1517   1.494       .  S
In303       O305   2.252       .  S
In303       O306   2.255       .  S
In303       O314   2.273       .  S
In303       O308   2.237       .  S
In303       O310   2.247       .  S
In303       O311   2.267       .  S
In303       O312   2.241       .  S
In303       O315   2.215       .  S
C304        O310   1.260       .  A
C304        O312   1.260       .  A
C304        C576   1.480       .  S
O305        C313   1.264       .  A
O306        C313   1.260       .  A
C307        O314   1.262       .  A
C307        O308   1.260       .  A
C307        C506   1.490       .  S
C309        O311   1.265       .  A
C309        O315   1.259       .  A
C309        C537   1.480       .  S
C313       C1349   1.490       .  S
In316       O318   2.229       .  S
In316       O319   2.276       .  S
In316       O327   2.283       .  S
In316       O321   2.226       .  S
In316       O323   2.263       .  S
In316       O324   2.260       .  S
In316       O325   2.236       .  S
In316       O328   2.256       .  S
C317        O323   1.259       .  A
C317        O325   1.259       .  A
C317        C705   1.479       .  S
O318        C326   1.261       .  A
O319        C326   1.266       .  A
C320        O327   1.264       .  A
C320        O321   1.257       .  A
C320        C509   1.486       .  S
C322        O324   1.261       .  A
C322        O328   1.259       .  A
C322       C1545   1.489       .  S
C326        C523   1.491       .  S
C329        C464   1.605       .  S
C329        C478   1.595       .  S
C329        C495   1.587       .  S
C329        C982   1.564       .  S
C330        C436   1.607       .  S
C330        C453   1.583       .  S
C330        C492   1.580       .  S
C330       C1041   1.561       .  S
C331        C408   1.609       .  S
C331        C422   1.590       .  S
C331        C481   1.588       .  S
C331        C565   1.579       .  S
C332        C394   1.584       .  S
C332        C425   1.579       .  S
C332        C450   1.576       .  S
C332        C604   1.562       .  S
C333        C366   1.579       .  S
C333        C380   1.596       .  S
C333        C467   1.598       .  S
C333        C817   1.565       .  S
C334        C352   1.599       .  S
C334        C383   1.611       .  S
C334        C439   1.601       .  S
C334        C859   1.576       .  S
C335        C341   1.600       .  S
C335        C369   1.580       .  S
C335        C411   1.611       .  S
C335        C674   1.565       .  S
C336        C338   1.615       .  S
C336        C355   1.600       .  S
C336        C397   1.601       .  S
C336        C730   1.578       .  S
C337        C338   1.421       .  A
C337        C342   1.409       .  A
C337        H344   1.081       .  S
C338        C339   1.423       .  A
C339        C340   1.425       .  A
C339        N346   1.431       .  S
C340        C341   1.409       .  A
C340        H345   1.066       .  S
C341        C342   1.433       .  A
C342        N343   1.439       .  S
N343        H347   1.046       .  S
N343        H348   1.044       .  S
N346        H349   1.046       .  S
N346        H350   1.046       .  S
C351        C352   1.427   1_545  A
C351        C356   1.447       .  A
C351        H358   1.082   1_545  S
C352        C353   1.409   1_565  A
C353        C354   1.392       .  A
C353        N360   1.416   1_545  S
C354        C355   1.404       .  A
C354        H359   1.082       .  S
C355        C356   1.431       .  A
C356        N357   1.428       .  S
N357        H361   1.045       .  S
N357        H362   1.045       .  S
N360        H363   1.037       .  S
N360        H364   1.037       .  S
C365        C366   1.422       .  A
C365        C370   1.432   1_565  A
C365        H372   1.081       .  S
C366        C367   1.411       .  A
C367        C368   1.382   1_565  A
C367        N374   1.423       .  S
C368        C369   1.403       .  A
C368        H373   1.084       .  S
C369        C370   1.425       .  A
C370        N371   1.429       .  S
N371        H375   1.045       .  S
N371        H376   1.045       .  S
N374        H377   1.037       .  S
N374        H378   1.038       .  S
C379        C380   1.411       .  A
C379        C384   1.415       .  A
C379        H386   1.073       .  S
C380        C381   1.432       .  A
C381        C382   1.419       .  A
C381        N388   1.432       .  S
C382        C383   1.419       .  A
C382        H387   1.083       .  S
C383        C384   1.421       .  A
C384        N385   1.434       .  S
N385        H389   1.046       .  S
N385        H390   1.046       .  S
N388        H391   1.045       .  S
N388        H392   1.046       .  S
C393        C394   1.417       .  A
C393        C398   1.413       .  A
C393        H400   1.082       .  S
C394        C395   1.416       .  A
C395        C396   1.421       .  A
C395        N402   1.429       .  S
C396        C397   1.420       .  A
C396        H401   1.074       .  S
C397        C398   1.423       .  A
C398        N399   1.439       .  S
N399        H403   1.046       .  S
N399        H404   1.041       .  S
N402        H405   1.044       .  S
N402        H406   1.044       .  S
C407        C408   1.423       .  A
C407        C412   1.439       .  A
C407        H414   1.083       .  S
C408        C409   1.425       .  A
C409        C410   1.388       .  A
C409        N416   1.429       .  S
C410        C411   1.416       .  A
C410        H415   1.082       .  S
C411        C412   1.428       .  A
C412        N413   1.431       .  S
N413        H417   1.046       .  S
N413        H418   1.045       .  S
N416        H419   1.031       .  S
N416        H420   1.039       .  S
C421        C422   1.403       .  A
C421        C426   1.390       .  A
C421        H428   1.056       .  S
C422        C423   1.429       .  A
C423        C424   1.415       .  A
C423        N430   1.433       .  S
C424        C425   1.421       .  A
C424        H429   1.084       .  S
C425        C426   1.420       .  A
C426        N427   1.419       .  S
N427        H431   1.045       .  S
N427        H432   1.045       .  S
N430        H433   1.045       .  S
N430        H434   1.045       .  S
C435        C436   1.410       .  A
C435        C440   1.387       .  A
C435        H442   1.082       .  S
C436        C437   1.427       .  A
C437        C438   1.430       .  A
C437        N444   1.434       .  S
C438        C439   1.417       .  A
C438        H443   1.081       .  S
C439        C440   1.423       .  A
C440        N441   1.421       .  S
N441        H445   1.033   1_565  S
N441        H446   1.037       .  S
N444        H447   1.045       .  S
N444        H448   1.045       .  S
C449        C450   1.422       .  A
C449        C454   1.431   1_545  A
C449        H456   1.080       .  S
C450        C451   1.413       .  A
C451        C452   1.381   1_545  A
C451        N458   1.426       .  S
C452        C453   1.407       .  A
C452        H457   1.083       .  S
C453        C454   1.424       .  A
C454        N455   1.429       .  S
N455        H459   1.045       .  S
N455        H460   1.046       .  S
N458        H461   1.037       .  S
N458        H462   1.039       .  S
C463        C464   1.414       .  A
C463        C468   1.425       .  A
C463        H470   1.083       .  S
C464        C465   1.417       .  A
C465        C466   1.408       .  A
C465        N472   1.436       .  S
C466        C467   1.419       .  A
C466        H471   1.081       .  S
C467        C468   1.433       .  A
C468        N469   1.434       .  S
N469        H473   1.041       .  S
N469        H474   1.044       .  S
N472        H475   1.044       .  S
N472        H476   1.045       .  S
C477        C478   1.394       .  A
C477        C482   1.374   1_565  A
C477        H484   1.079       .  S
C478        C479   1.433       .  A
C479        C480   1.443   1_565  A
C479        N486   1.428       .  S
C480        C481   1.425       .  A
C480        H485   1.082       .  S
C481        C482   1.424       .  A
C482        N483   1.421       .  S
N483        H487   1.038       .  S
N483        H488   1.036       .  S
N486        H489   1.046       .  S
N486        H490   1.045       .  S
C491        C492   1.422       .  A
C491        C496   1.405       .  A
C491        H498   1.083       .  S
C492        C493   1.408       .  A
C493        C494   1.397       .  A
C493        N500   1.417       .  S
C494        C495   1.409       .  A
C494        H499   1.060       .  S
C495        C496   1.424       .  A
C496        N497   1.433       .  S
N497        H501   1.045       .  S
N497        H502   1.045       .  S
N500        H503   1.040       .  S
N500        H504   1.046       .  S
C505        C506   1.404       .  A
C505        C510   1.405       .  A
C505        H512   1.083       .  S
C506        C507   1.413       .  A
C507        C508   1.410       .  A
C507        N514   1.432       .  S
C508        C509   1.405       .  A
C508        H513   1.084       .  S
C509        C510   1.413       .  A
C510        N511   1.438       .  S
N511        H515   1.046       .  S
N511        H516   1.046       .  S
N514        H517   1.046       .  S
N514        H518   1.046       .  S
C519        C520   1.403       .  A
C519        C524   1.405   1_554  A
C519        H526   1.084       .  S
C520        C521   1.411       .  A
C521        C522   1.411   1_554  A
C521        N528   1.432       .  S
C522        C523   1.408       .  A
C522        H527   1.084       .  S
C523        C524   1.415       .  A
C524        N525   1.438       .  S
N525        H529   1.046       .  S
N525        H530   1.046       .  S
N528        H531   1.046       .  S
N528        H532   1.046       .  S
C533        C534   1.402       .  A
C533        C538   1.399   1_554  A
C533        H540   1.084       .  S
C534        C535   1.414       .  A
C535        C536   1.410   1_554  A
C535        N542   1.437       .  S
C536        C537   1.404       .  A
C536        H541   1.083       .  S
C537        C538   1.410       .  A
C538        N539   1.433       .  S
N539        H543   1.046       .  S
N539        H544   1.046       .  S
N542        H545   1.045       .  S
N542        H546   1.046       .  S
C547        C548   1.406       .  A
C547        C552   1.410       .  A
C547        H554   1.083       .  S
C548        C549   1.415       .  A
C549        C550   1.407       .  A
C549        N556   1.433       .  S
C550        C551   1.406       .  A
C550        H555   1.084       .  S
C551        C552   1.413       .  A
C552        N553   1.431       .  S
N553        H557   1.046       .  S
N553        H558   1.046       .  S
N556        H559   1.046       .  S
N556        H560   1.046       .  S
C561        C562   1.401       .  A
C561        C566   1.409       .  A
C561        H568   1.084       .  S
C562        C563   1.406       .  A
C563        C564   1.398       .  A
C563        N570   1.433       .  S
C564        C565   1.427       .  A
C564        H569   1.075       .  S
C565        C566   1.423       .  A
C566        N567   1.425       .  S
N567        H571   1.046       .  S
N567        H572   1.046       .  S
N570        H573   1.045       .  S
N570        H574   1.045       .  S
C575        C576   1.403       .  A
C575        C580   1.402       .  A
C575        H582   1.084       .  S
C576        C577   1.417       .  A
C577        C578   1.400       .  A
C577        N584   1.433       .  S
C578        C579   1.404       .  A
C578        H583   1.084       .  S
C579        C580   1.411       .  A
C580        N581   1.433       .  S
N581        H585   1.046       .  S
N581        H586   1.046       .  S
N584        H587   1.046       .  S
N584        H588   1.045       .  S
C589        C590   1.404       .  A
C589        C594   1.403       .  A
C589        H596   1.084       .  S
C590        C591   1.409       .  A
C591        C592   1.404       .  A
C591        N598   1.432       .  S
C592        C593   1.406       .  A
C592        H597   1.084       .  S
C593        C594   1.413       .  A
C594        N595   1.432       .  S
N595        H599   1.046       .  S
N595        H600   1.045       .  S
N598        H601   1.046       .  S
N598        H602   1.046       .  S
C603        C604   1.416       .  A
C603        C608   1.400       .  A
C603        H610   1.083       .  S
C604        C605   1.444       .  A
C605        C606   1.394       .  A
C605        N612   1.432       .  S
C606        C607   1.394       .  A
C606        H611   1.085       .  S
C607        C608   1.413       .  A
C608        N609   1.432       .  S
N609        H613   1.045       .  S
N609        H614   1.044       .  S
N612        H615   1.041       .  S
N612        H616   1.042       .  S
C617        C618   1.402       .  A
C617        C622   1.397   1_554  A
C617        H624   1.084       .  S
C618        C619   1.409       .  A
C619        C620   1.406   1_554  A
C619        N626   1.432       .  S
C620        C621   1.406       .  A
C620        H625   1.083       .  S
C621        C622   1.412       .  A
C622        N623   1.433       .  S
N623        H627   1.046       .  S
N623        H628   1.046       .  S
N626        H629   1.046       .  S
N626        H630   1.045       .  S
C631        C632   1.406       .  A
C631        C636   1.405       .  A
C631        H638   1.084       .  S
C632        C633   1.410       .  A
C633        C634   1.395       .  A
C633        N640   1.433       .  S
C634        C635   1.402       .  A
C634        H639   1.084       .  S
C635        C636   1.410       .  A
C636        N637   1.432       .  S
N637        H641   1.046       .  S
N637        H642   1.046       .  S
N640        H643   1.046       .  S
N640        H644   1.046       .  S
C645        C646   1.404       .  A
C645        C650   1.407   1_556  A
C645        H652   1.084       .  S
C646        C647   1.411       .  A
C647        C648   1.401   1_556  A
C647        N654   1.439       .  S
C648        C649   1.405       .  A
C648        H653   1.084       .  S
C649        C650   1.413       .  A
C650        N651   1.437       .  S
N651        H655   1.046       .  S
N651        H656   1.045       .  S
N654        H657   1.046       .  S
N654        H658   1.046       .  S
C659        C660   1.405       .  A
C659        C664   1.407       .  A
C659        H666   1.084       .  S
C660        C661   1.410       .  A
C661        C662   1.400       .  A
C661        N668   1.433       .  S
C662        C663   1.404       .  A
C662        H667   1.084       .  S
C663        C664   1.413       .  A
C664        N665   1.432       .  S
N665        H669   1.046       .  S
N665        H670   1.045       .  S
N668        H671   1.046       .  S
N668        H672   1.045       .  S
C673        C674   1.418       .  A
C673        C678   1.401       .  A
C673        H680   1.079       .  S
C674        C675   1.424       .  A
C675        C676   1.409       .  A
C675        N682   1.431       .  S
C676        C677   1.404       .  A
C676        H681   1.084       .  S
C677        C678   1.414       .  A
C678        N679   1.432       .  S
N679        H683   1.045       .  S
N679        H684   1.045       .  S
N682        H685   1.045       .  S
N682        H686   1.046       .  S
C687        C688   1.403       .  A
C687        C692   1.401       .  A
C687        H694   1.084       .  S
C688        C689   1.409       .  A
C689        C690   1.404       .  A
C689        N696   1.432       .  S
C690        C691   1.404       .  A
C690        H695   1.084       .  S
C691        C692   1.411       .  A
C692        N693   1.433       .  S
N693        H697   1.045       .  S
N693        H698   1.046       .  S
N696        H699   1.045       .  S
N696        H700   1.045       .  S
C701        C702   1.406       .  A
C701        C706   1.406       .  A
C701        H708   1.084       .  S
C702        C703   1.412       .  A
C703        C704   1.399       .  A
C703        N710   1.433       .  S
C704        C705   1.401       .  A
C704        H709   1.084       .  S
C705        C706   1.411       .  A
C706        N707   1.432       .  S
N707        H711   1.046       .  S
N707        H712   1.046       .  S
N710        H713   1.046       .  S
N710        H714   1.046       .  S
C715        C716   1.405       .  A
C715        C720   1.405       .  A
C715        H722   1.084       .  S
C716        C717   1.413       .  A
C717        C718   1.408       .  A
C717        N724   1.432       .  S
C718        C719   1.405       .  A
C718        H723   1.084       .  S
C719        C720   1.414       .  A
C720        N721   1.433       .  S
N721        H725   1.046       .  S
N721        H726   1.046       .  S
N724        H727   1.045       .  S
N724        H728   1.046       .  S
C729        C730   1.421       .  A
C729        C734   1.390       .  A
C729        H736   1.074       .  S
C730        C731   1.428       .  A
C731        C732   1.416       .  A
C731        N738   1.427       .  S
C732        C733   1.400       .  A
C732        H737   1.084       .  S
C733        C734   1.407       .  A
C734        N735   1.435       .  S
N735        H739   1.045       .  S
N735        H740   1.045       .  S
N738        H741   1.045       .  S
N738        H742   1.046       .  S
C743        C744   1.406       .  A
C743        C748   1.402       .  A
C743        H750   1.084       .  S
C744        C745   1.412       .  A
C745        C746   1.400       .  A
C745        N752   1.433       .  S
C746        C747   1.402       .  A
C746        H751   1.084       .  S
C747        C748   1.415       .  A
C748        N749   1.432       .  S
N749        H753   1.045       .  S
N749        H754   1.045       .  S
N752        H755   1.046       .  S
N752        H756   1.046       .  S
C757        C758   1.409       .  A
C757        C762   1.407   1_554  A
C757        H764   1.084       .  S
C758        C759   1.418       .  A
C759        C760   1.394   1_554  A
C759        N766   1.433       .  S
C760        C761   1.404       .  A
C760        H765   1.084       .  S
C761        C762   1.416       .  A
C762        N763   1.432       .  S
N763        H767   1.045       .  S
N763        H768   1.045       .  S
N766        H769   1.045       .  S
N766        H770   1.045       .  S
C771        C772   1.407       .  A
C771        C776   1.408       .  A
C771        H778   1.084       .  S
C772        C773   1.412       .  A
C773        C774   1.398       .  A
C773        N780   1.433       .  S
C774        C775   1.403       .  A
C774        H779   1.084       .  S
C775        C776   1.412       .  A
C776        N777   1.432       .  S
N777        H781   1.046       .  S
N777        H782   1.046       .  S
N780        H783   1.046       .  S
N780        H784   1.046       .  S
C785        C786   1.405       .  A
C785        C790   1.406   1_556  A
C785        H792   1.084       .  S
C786        C787   1.412       .  A
C787        C788   1.401   1_556  A
C787        N794   1.438       .  S
C788        C789   1.402       .  A
C788        H793   1.084       .  S
C789        C790   1.410       .  A
C790        N791   1.432       .  S
N791        H795   1.045       .  S
N791        H796   1.046       .  S
N794        H797   1.046       .  S
N794        H798   1.046       .  S
C799        C800   1.406       .  A
C799        C804   1.410       .  A
C799        H806   1.083       .  S
C800        C801   1.413       .  A
C801        C802   1.407       .  A
C801        N808   1.432       .  S
C802        C803   1.404       .  A
C802        H807   1.084       .  S
C803        C804   1.414       .  A
C804        N805   1.438       .  S
N805        H809   1.046       .  S
N805        H810   1.046       .  S
N808        H811   1.046       .  S
N808        H812   1.045       .  S
C813        C814   1.402       .  A
C813        C818   1.406       .  A
C813        H820   1.084       .  S
C814        C815   1.415       .  A
C815        C816   1.405       .  A
C815        N822   1.432       .  S
C816        C817   1.420       .  A
C816        H821   1.080       .  S
C817        C818   1.423       .  A
C818        N819   1.431       .  S
N819        H823   1.046       .  S
N819        H824   1.046       .  S
N822        H825   1.045       .  S
N822        H826   1.045       .  S
C827        C828   1.406       .  A
C827        C832   1.405       .  A
C827        H834   1.084       .  S
C828        C829   1.413       .  A
C829        C830   1.407       .  A
C829        N836   1.432       .  S
C830        C831   1.405       .  A
C830        H835   1.084       .  S
C831        C832   1.411       .  A
C832        N833   1.433       .  S
N833        H837   1.046       .  S
N833        H838   1.046       .  S
N836        H839   1.046       .  S
N836        H840   1.046       .  S
C841        C842   1.403       .  A
C841        C846   1.401   1_556  A
C841        H848   1.084       .  S
C842        C843   1.412       .  A
C843        C844   1.410   1_556  A
C843        N850   1.432       .  S
C844        C845   1.406       .  A
C844        H849   1.084       .  S
C845        C846   1.411       .  A
C846        N847   1.433       .  S
N847        H851   1.046       .  S
N847        H852   1.046       .  S
N850        H853   1.046       .  S
N850        H854   1.046       .  S
C855        C856   1.402       .  A
C855        C860   1.408       .  A
C855        H862   1.084       .  S
C856        C857   1.411       .  A
C857        C858   1.404       .  A
C857        N864   1.432       .  S
C858        C859   1.419       .  A
C858        H863   1.076       .  S
C859        C860   1.430       .  A
C860        N861   1.429       .  S
N861        H865   1.046       .  S
N861        H866   1.046       .  S
N864        H867   1.045       .  S
N864        H868   1.045       .  S
C869        C870   1.402       .  A
C869        C874   1.395   1_554  A
C869        H876   1.084       .  S
C870        C871   1.417       .  A
C871        C872   1.407   1_554  A
C871        N878   1.432       .  S
C872        C873   1.407       .  A
C872        H877   1.084       .  S
C873        C874   1.417       .  A
C874        N875   1.433       .  S
N875        H879   1.044       .  S
N875        H880   1.046       .  S
N878        H881   1.045       .  S
N878        H882   1.045       .  S
C883        C884   1.407       .  A
C883        C888   1.409       .  A
C883        H890   1.083       .  S
C884        C885   1.415       .  A
C885        C886   1.413       .  A
C885        N892   1.437       .  S
C886        C887   1.406       .  A
C886        H891   1.083       .  S
C887        C888   1.414       .  A
C888        N889   1.438       .  S
N889        H893   1.046       .  S
N889        H894   1.046       .  S
N892        H895   1.046       .  S
N892        H896   1.046       .  S
C897        C898   1.403       .  A
C897        C902   1.403       .  A
C897        H904   1.084       .  S
C898        C899   1.411       .  A
C899        C900   1.407       .  A
C899        N906   1.432       .  S
C900        C901   1.406       .  A
C900        H905   1.084       .  S
C901        C902   1.415       .  A
C902        N903   1.438       .  S
N903        H907   1.046       .  S
N903        H908   1.046       .  S
N906        H909   1.045       .  S
N906        H910   1.046       .  S
C911        C912   1.404       .  A
C911        C916   1.401       .  A
C911        H918   1.084       .  S
C912        C913   1.415       .  A
C913        C914   1.413       .  A
C913        N920   1.437       .  S
C914        C915   1.406       .  A
C914        H919   1.083       .  S
C915        C916   1.410       .  A
C916        N917   1.433       .  S
N917        H921   1.045       .  S
N917        H922   1.046       .  S
N920        H923   1.045       .  S
N920        H924   1.046       .  S
C925        C926   1.405       .  A
C925        C930   1.409       .  A
C925        H932   1.084       .  S
C926        C927   1.410       .  A
C927        C928   1.402       .  A
C927        N934   1.433       .  S
C928        C929   1.403   1_554  A
C928        H933   1.084   1_554  S
C929        C930   1.411   1_556  A
C930        N931   1.432   1_554  S
N931        H935   1.045       .  S
N931        H936   1.046       .  S
N934        H937   1.046       .  S
N934        H938   1.046       .  S
C939        C940   1.407       .  A
C939        C944   1.408       .  A
C939        H946   1.084       .  S
C940        C941   1.410       .  A
C941        C942   1.399       .  A
C941        N948   1.433       .  S
C942        C943   1.403       .  A
C942        H947   1.084       .  S
C943        C944   1.411       .  A
C944        N945   1.432       .  S
N945        H949   1.045       .  S
N945        H950   1.046       .  S
N948        H951   1.046       .  S
N948        H952   1.046       .  S
C953        C954   1.403       .  A
C953        C958   1.399       .  A
C953        H960   1.084       .  S
C954        C955   1.415       .  A
C955        C956   1.411       .  A
C955        N962   1.437       .  S
C956        C957   1.405   1_554  A
C956        H961   1.083   1_554  S
C957        C958   1.409   1_556  A
C958        N959   1.433   1_554  S
N959        H963   1.046       .  S
N959        H964   1.046       .  S
N962        H965   1.045       .  S
N962        H966   1.046       .  S
C967        C968   1.407       .  A
C967        C972   1.410       .  A
C967        H974   1.084       .  S
C968        C969   1.412       .  A
C969        C970   1.407       .  A
C969        N976   1.432       .  S
C970        C971   1.405       .  A
C970        H975   1.084       .  S
C971        C972   1.413       .  A
C972        N973   1.438       .  S
N973        H977   1.046       .  S
N973        H978   1.046       .  S
N976        H979   1.046       .  S
N976        H980   1.045       .  S
C981        C982   1.408       .  A
C981        C986   1.400       .  A
C981        H988   1.071       .  S
C982        C983   1.439       .  A
C983        C984   1.400       .  A
C983        N990   1.432       .  S
C984        C985   1.394       .  A
C984        H989   1.084       .  S
C985        C986   1.414       .  A
C986        N987   1.432       .  S
N987        H991   1.045       .  S
N987        H992   1.045       .  S
N990        H993   1.046       .  S
N990        H994   1.046       .  S
C995        C996   1.405       .  A
C995       C1000   1.407       .  A
C995       H1002   1.084       .  S
C996        C997   1.409       .  A
C997        C998   1.402       .  A
C997       N1004   1.433       .  S
C998        C999   1.404       .  A
C998       H1003   1.084       .  S
C999       C1000   1.414       .  A
C1000      N1001   1.438       .  S
N1001      H1005   1.046       .  S
N1001      H1006   1.046       .  S
N1004      H1007   1.046       .  S
N1004      H1008   1.045       .  S
C1009      C1010   1.405       .  A
C1009      C1014   1.401       .  A
C1009      H1016   1.084       .  S
C1010      C1011   1.412       .  A
C1011      C1012   1.409       .  A
C1011      N1018   1.432       .  S
C1012      C1013   1.407       .  A
C1012      H1017   1.084       .  S
C1013      C1014   1.409       .  A
C1014      N1015   1.433       .  S
N1015      H1019   1.046       .  S
N1015      H1020   1.046       .  S
N1018      H1021   1.046       .  S
N1018      H1022   1.046       .  S
C1023      C1024   1.404       .  A
C1023      C1028   1.407       .  A
C1023      H1030   1.084       .  S
C1024      C1025   1.410       .  A
C1025      C1026   1.406       .  A
C1025      N1032   1.432       .  S
C1026      C1027   1.405       .  A
C1026      H1031   1.084       .  S
C1027      C1028   1.415       .  A
C1028      N1029   1.432       .  S
N1029      H1033   1.046       .  S
N1029      H1034   1.045       .  S
N1032      H1035   1.046       .  S
N1032      H1036   1.046       .  S
C1037      C1038   1.394       .  A
C1037      C1042   1.399       .  A
C1037      H1044   1.084       .  S
C1038      C1039   1.412       .  A
C1039      C1040   1.410       .  A
C1039      N1046   1.437       .  S
C1040      C1041   1.415       .  A
C1040      H1045   1.083       .  S
C1041      C1042   1.433       .  A
C1042      N1043   1.430       .  S
N1043      H1047   1.046       .  S
N1043      H1048   1.046       .  S
N1046      H1049   1.046       .  S
N1046      H1050   1.046       .  S
C1051      C1052   1.406       .  A
C1051      C1056   1.405       .  A
C1051      H1058   1.084       .  S
C1052      C1053   1.415       .  A
C1053      C1054   1.404       .  A
C1053      N1060   1.438       .  S
C1054      C1055   1.405       .  A
C1054      H1059   1.083       .  S
C1055      C1056   1.410       .  A
C1056      N1057   1.432       .  S
N1057      H1061   1.046       .  S
N1057      H1062   1.046       .  S
N1060      H1063   1.046       .  S
N1060      H1064   1.046       .  S
C1065      C1066   1.402       .  A
C1065      C1070   1.397   1_554  A
C1065      H1072   1.084       .  S
C1066      C1067   1.409       .  A
C1067      C1068   1.406   1_554  A
C1067      N1074   1.432       .  S
C1068      C1069   1.405       .  A
C1068      H1073   1.084       .  S
C1069      C1070   1.409       .  A
C1070      N1071   1.439       .  S
N1071      H1075   1.046   1_556  S
N1071      H1076   1.046       .  S
N1074      H1077   1.046       .  S
N1074      H1078   1.045       .  S
C1079      C1080   1.406       .  A
C1079      C1084   1.407       .  A
C1079      H1086   1.084       .  S
C1080      C1081   1.416       .  A
C1081      C1082   1.403       .  A
C1081      N1088   1.438       .  S
C1082      C1083   1.404       .  A
C1082      H1087   1.083       .  S
C1083      C1084   1.411       .  A
C1084      N1085   1.432       .  S
N1085      H1089   1.046       .  S
N1085      H1090   1.046       .  S
N1088      H1091   1.046       .  S
N1088      H1092   1.046       .  S
C1093      C1094   1.403       .  A
C1093      C1098   1.401   1_556  A
C1093      H1100   1.084       .  S
C1094      C1095   1.411       .  A
C1095      C1096   1.406   1_556  A
C1095      N1102   1.432       .  S
C1096      C1097   1.405       .  A
C1096      H1101   1.084       .  S
C1097      C1098   1.413       .  A
C1098      N1099   1.438       .  S
N1099      H1103   1.046       .  S
N1099      H1104   1.046       .  S
N1102      H1105   1.046       .  S
N1102      H1106   1.046       .  S
C1107      C1108   1.404       .  A
C1107      C1112   1.398       .  A
C1107      H1114   1.084       .  S
C1108      C1109   1.419       .  A
C1109      C1110   1.409       .  A
C1109      N1116   1.432       .  S
C1110      C1111   1.409       .  A
C1110      H1115   1.084       .  S
C1111      C1112   1.420       .  A
C1112      N1113   1.432       .  S
N1113      H1117   1.045       .  S
N1113      H1118   1.045       .  S
N1116      H1119   1.046       .  S
N1116      H1120   1.044       .  S
C1121      C1122   1.427       .  A
C1121      C1126   1.399       .  A
C1121      H1128   1.075       .  S
C1122      C1123   1.425       .  A
C1123      C1124   1.412       .  A
C1123      N1130   1.427       .  S
C1124      C1125   1.403       .  A
C1124      H1129   1.084       .  S
C1125      C1126   1.409       .  A
C1126      N1127   1.434       .  S
N1127      H1131   1.045       .  S
N1127      H1132   1.045       .  S
N1130      H1133   1.046       .  S
N1130      H1134   1.046       .  S
C1135      C1136   1.410       .  A
C1135      C1140   1.399       .  A
C1135      H1142   1.082       .  S
C1136      C1137   1.434       .  A
C1137      C1138   1.404       .  A
C1137      N1144   1.432       .  S
C1138      C1139   1.398       .  A
C1138      H1143   1.084       .  S
C1139      C1140   1.415       .  A
C1140      N1141   1.432       .  S
N1141      H1145   1.045       .  S
N1141      H1146   1.045       .  S
N1144      H1147   1.046       .  S
N1144      H1148   1.046       .  S
C1149      C1150   1.410       .  A
C1149      C1154   1.420       .  A
C1149      H1156   1.065       .  S
C1150      C1151   1.430       .  A
C1151      C1152   1.395       .  A
C1151      N1158   1.436       .  S
C1152      C1153   1.424       .  A
C1152      H1157   1.082       .  S
C1153      C1154   1.422       .  A
C1154      N1155   1.424       .  S
N1155      H1159   1.044       .  S
N1155      H1160   1.046       .  S
N1158      H1161   1.038       .  S
N1158      H1162   1.045       .  S
C1163      C1164   1.413       .  A
C1163      C1168   1.405       .  A
C1163      H1170   1.083       .  S
C1164      C1165   1.430       .  A
C1165      C1166   1.407       .  A
C1165      N1172   1.431       .  S
C1166      C1167   1.400       .  A
C1166      H1171   1.084       .  S
C1167      C1168   1.410       .  A
C1168      N1169   1.432       .  S
N1169      H1173   1.046       .  S
N1169      H1174   1.046       .  S
N1172      H1175   1.045       .  S
N1172      H1176   1.046       .  S
C1177      C1178   1.402       .  A
C1177      C1182   1.400   1_655  A
C1177      H1184   1.074       .  S
C1178      C1179   1.429       .  A
C1179      C1180   1.436   1_655  A
C1179      N1186   1.431       .  S
C1180      C1181   1.418       .  A
C1180      H1185   1.078       .  S
C1181      C1182   1.439       .  A
C1182      N1183   1.435       .  S
N1183      H1187   1.034       .  S
N1183      H1188   1.037       .  S
N1186      H1189   1.045       .  S
N1186      H1190   1.045       .  S
C1191      C1192   1.410       .  A
C1191      C1196   1.392       .  A
C1191      H1198   1.065       .  S
C1192      C1193   1.440       .  A
C1193      C1194   1.403       .  A
C1193      N1200   1.434       .  S
C1194      C1195   1.398       .  A
C1194      H1199   1.084       .  S
C1195      C1196   1.410       .  A
C1196      N1197   1.433       .  S
N1197      H1201   1.045       .  S
N1197      H1202   1.045       .  S
N1200      H1203   1.042       .  S
N1200      H1204   1.041       .  S
C1205      C1206   1.421       .  A
C1205      C1210   1.435   1_655  A
C1205      H1212   1.079       .  S
C1206      C1207   1.432       .  A
C1207      C1208   1.401   1_655  A
C1207      N1214   1.435       .  S
C1208      C1209   1.414       .  A
C1208      H1213   1.080       .  S
C1209      C1210   1.437       .  A
C1210      N1211   1.436       .  S
N1211      H1215   1.045       .  S
N1211      H1216   1.041       .  S
N1214      H1217   1.030       .  S
N1214      H1218   1.036       .  S
C1219      C1220   1.426       .  A
C1219      C1224   1.421       .  A
C1219      H1226   1.083       .  S
C1220      C1221   1.409       .  A
C1221      C1222   1.391       .  A
C1221      N1228   1.413       .  S
C1222      C1223   1.408       .  A
C1222      H1227   1.058       .  S
C1223      C1224   1.438       .  A
C1224      N1225   1.439       .  S
N1225      H1229   1.045       .  S
N1225      H1230   1.040       .  S
N1228      H1231   1.045       .  S
N1228      H1232   1.045       .  S
C1233      C1234   1.403       .  A
C1233      C1238   1.402       .  A
C1233      H1240   1.084       .  S
C1234      C1235   1.413       .  A
C1235      C1236   1.403       .  A
C1235      N1242   1.432       .  S
C1236      C1237   1.418       .  A
C1236      H1241   1.081       .  S
C1237      C1238   1.420       .  A
C1238      N1239   1.431       .  S
N1239      H1243   1.046       .  S
N1239      H1244   1.045       .  S
N1242      H1245   1.045       .  S
N1242      H1246   1.044       .  S
C1247      C1248   1.425       .  A
C1247      C1252   1.432       .  A
C1247      H1254   1.080       .  S
C1248      C1249   1.404       .  A
C1249      C1250   1.386       .  A
C1249      N1256   1.413       .  S
C1250      C1251   1.403       .  A
C1250      H1255   1.080       .  S
C1251      C1252   1.427       .  A
C1252      N1253   1.429       .  S
N1253      H1257   1.045       .  S
N1253      H1258   1.045       .  S
N1256      H1259   1.039   1_455  S
N1256      H1260   1.032       .  S
C1261      C1262   1.411       .  A
C1261      C1266   1.394       .  A
C1261      H1268   1.071       .  S
C1262      C1263   1.437       .  A
C1263      C1264   1.405       .  A
C1263      N1270   1.432       .  S
C1264      C1265   1.400       .  A
C1264      H1269   1.084       .  S
C1265      C1266   1.411       .  A
C1266      N1267   1.433       .  S
N1267      H1271   1.045       .  S
N1267      H1272   1.045       .  S
N1270      H1273   1.044       .  S
N1270      H1274   1.040       .  S
C1275      C1276   1.425       .  A
C1275      C1280   1.426       .  A
C1275      H1282   1.077       .  S
C1276      C1277   1.413       .  A
C1277      C1278   1.395       .  A
C1277      N1284   1.426       .  S
C1278      C1279   1.402       .  A
C1278      H1283   1.081       .  S
C1279      C1280   1.441       .  A
C1280      N1281   1.430       .  S
N1281      H1285   1.042       .  S
N1281      H1286   1.041       .  S
N1284      H1287   1.038       .  S
N1284      H1288   1.039       .  S
C1289      C1290   1.403       .  A
C1289      C1294   1.392       .  A
C1289      H1296   1.058       .  S
C1290      C1291   1.426       .  A
C1291      C1292   1.422       .  A
C1291      N1298   1.432       .  S
C1292      C1293   1.425       .  A
C1292      H1297   1.083       .  S
C1293      C1294   1.416       .  A
C1294      N1295   1.415       .  S
N1295      H1299   1.044       .  S
N1295      H1300   1.044   1_455  S
N1298      H1301   1.045       .  S
N1298      H1302   1.045       .  S
C1303      C1304   1.422       .  A
C1303      C1308   1.397       .  A
C1303      H1310   1.065       .  S
C1304      C1305   1.432       .  A
C1305      C1306   1.420       .  A
C1305      N1312   1.430       .  S
C1306      C1307   1.406       .  A
C1306      H1311   1.084       .  S
C1307      C1308   1.399       .  A
C1308      N1309   1.434       .  S
N1309      H1313   1.046       .  S
N1309      H1314   1.046       .  S
N1312      H1315   1.046       .  S
N1312      H1316   1.046       .  S
C1317      C1318   1.428       .  A
C1317      C1322   1.435       .  A
C1317      H1324   1.078       .  S
C1318      C1319   1.407       .  A
C1319      C1320   1.388       .  A
C1319      N1326   1.415       .  S
C1320      C1321   1.399       .  A
C1320      H1325   1.080       .  S
C1321      C1322   1.428       .  A
C1322      N1323   1.430       .  S
N1323      H1327   1.045       .  S
N1323      H1328   1.046       .  S
N1326      H1329   1.040       .  S
N1326      H1330   1.034       .  S
C1331      C1332   1.423       .  A
C1331      C1336   1.441   1_655  A
C1331      H1338   1.075       .  S
C1332      C1333   1.433       .  A
C1333      C1334   1.409   1_655  A
C1333      N1340   1.434       .  S
C1334      C1335   1.407       .  A
C1334      H1339   1.072       .  S
C1335      C1336   1.423       .  A
C1336      N1337   1.434       .  S
N1337      H1341   1.045       .  S
N1337      H1342   1.045       .  S
N1340      H1343   1.040       .  S
N1340      H1344   1.040       .  S
C1345      C1346   1.414       .  A
C1345      C1350   1.409       .  A
C1345      H1352   1.082       .  S
C1346      C1347   1.433       .  A
C1347      C1348   1.403       .  A
C1347      N1354   1.431       .  S
C1348      C1349   1.397       .  A
C1348      H1353   1.084       .  S
C1349      C1350   1.410       .  A
C1350      N1351   1.432       .  S
N1351      H1355   1.046       .  S
N1351      H1356   1.046       .  S
N1354      H1357   1.046       .  S
N1354      H1358   1.046       .  S
C1359      C1360   1.419       .  A
C1359      C1364   1.430       .  A
C1359      H1366   1.079       .  S
C1360      C1361   1.408       .  A
C1361      C1362   1.388       .  A
C1361      N1368   1.417       .  S
C1362      C1363   1.401       .  A
C1362      H1367   1.081       .  S
C1363      C1364   1.436       .  A
C1364      N1365   1.430       .  S
N1365      H1369   1.046       .  S
N1365      H1370   1.046       .  S
N1368      H1371   1.032       .  S
N1368      H1372   1.038       .  S
C1373      C1374   1.415       .  A
C1373      C1378   1.398   1_655  A
C1373      H1380   1.078       .  S
C1374      C1375   1.437       .  A
C1375      C1376   1.434   1_655  A
C1375      N1382   1.437       .  S
C1376      C1377   1.423       .  A
C1376      H1381   1.082       .  S
C1377      C1378   1.424       .  A
C1378      N1379   1.432       .  S
N1379      H1383   1.035       .  S
N1379      H1384   1.043       .  S
N1382      H1385   1.040       .  S
N1382      H1386   1.045       .  S
C1387      C1388   1.415       .  A
C1387      C1392   1.425       .  A
C1387      H1394   1.063       .  S
C1388      C1389   1.431       .  A
C1389      C1390   1.393       .  A
C1389      N1396   1.433       .  S
C1390      C1391   1.424       .  A
C1390      H1395   1.083       .  S
C1391      C1392   1.417       .  A
C1392      N1393   1.431       .  S
N1393      H1397   1.046       .  S
N1393      H1398   1.046       .  S
N1396      H1399   1.040       .  S
N1396      H1400   1.044       .  S
C1401      C1402   1.417       .  A
C1401      C1406   1.420       .  A
C1401      H1408   1.076       .  S
C1402      C1403   1.439       .  A
C1403      C1404   1.387       .  A
C1403      N1410   1.437       .  S
C1404      C1405   1.392       .  A
C1404      H1409   1.085       .  S
C1405      C1406   1.410       .  A
C1406      N1407   1.431       .  S
N1407      H1411   1.046       .  S
N1407      H1412   1.045       .  S
N1410      H1413   1.032       .  S
N1410      H1414   1.043       .  S
C1415      C1416   1.411       .  A
C1415      C1420   1.401       .  A
C1415      H1422   1.082       .  S
C1416      C1417   1.430       .  A
C1417      C1418   1.408       .  A
C1417      N1424   1.432       .  S
C1418      C1419   1.400       .  A
C1418      H1423   1.084       .  S
C1419      C1420   1.419       .  A
C1420      N1421   1.432       .  S
N1421      H1425   1.045       .  S
N1421      H1426   1.045       .  S
N1424      H1427   1.045       .  S
N1424      H1428   1.046       .  S
C1429      C1430   1.413       .  A
C1429      C1434   1.420       .  A
C1429      H1436   1.083       .  S
C1430      C1431   1.419       .  A
C1431      C1432   1.398       .  A
C1431      N1438   1.421       .  S
C1432      C1433   1.420       .  A
C1432      H1437   1.062       .  S
C1433      C1434   1.436       .  A
C1434      N1435   1.424       .  S
N1435      H1439   1.046       .  S
N1435      H1440   1.046       .  S
N1438      H1441   1.046       .  S
N1438      H1442   1.043       .  S
C1443      C1444   1.414       .  A
C1443      C1448   1.405       .  A
C1443      H1450   1.081       .  S
C1444      C1445   1.433       .  A
C1445      C1446   1.411       .  A
C1445      N1452   1.432       .  S
C1446      C1447   1.401       .  A
C1446      H1451   1.084       .  S
C1447      C1448   1.418       .  A
C1448      N1449   1.432       .  S
N1449      H1453   1.044       .  S
N1449      H1454   1.046       .  S
N1452      H1455   1.046       .  S
N1452      H1456   1.045       .  S
C1457      C1458   1.423       .  A
C1457      C1462   1.443       .  A
C1457      H1464   1.082       .  S
C1458      C1459   1.404       .  A
C1459      C1460   1.398       .  A
C1459      N1466   1.420       .  S
C1460      C1461   1.410       .  A
C1460      H1465   1.062       .  S
C1461      C1462   1.449       .  A
C1462      N1463   1.432       .  S
N1463      H1467   1.046       .  S
N1463      H1468   1.046       .  S
N1466      H1469   1.043       .  S
N1466      H1470   1.036       .  S
C1471      C1472   1.419       .  A
C1471      C1476   1.400       .  A
C1471      H1478   1.077       .  S
C1472      C1473   1.430       .  A
C1473      C1474   1.411       .  A
C1473      N1480   1.430       .  S
C1474      C1475   1.401       .  A
C1474      H1479   1.084       .  S
C1475      C1476   1.404       .  A
C1476      N1477   1.433       .  S
N1477      H1481   1.046       .  S
N1477      H1482   1.046       .  S
N1480      H1483   1.046       .  S
N1480      H1484   1.046       .  S
C1485      C1486   1.417       .  A
C1485      C1490   1.435       .  A
C1485      H1492   1.079       .  S
C1486      C1487   1.437       .  A
C1487      C1488   1.403       .  A
C1487      N1494   1.441       .  S
C1488      C1489   1.414       .  A
C1488      H1493   1.082       .  S
C1489      C1490   1.424       .  A
C1490      N1491   1.436       .  S
N1491      H1495   1.045       .  S
N1491      H1496   1.045       .  S
N1494      H1497   1.041       .  S
N1494      H1498   1.044       .  S
C1499      C1500   1.423       .  A
C1499      C1504   1.435       .  A
C1499      H1506   1.073       .  S
C1500      C1501   1.416       .  A
C1501      C1502   1.379       .  A
C1501      N1508   1.434       .  S
C1502      C1503   1.401       .  A
C1502      H1507   1.068       .  S
C1503      C1504   1.440       .  A
C1504      N1505   1.431       .  S
N1505      H1509   1.041       .  S
N1505      H1510   1.042       .  S
N1508      H1511   1.044       .  S
N1508      H1512   1.046       .  S
C1513      C1514   1.408       .  A
C1513      C1518   1.407       .  A
C1513      H1520   1.077       .  S
C1514      C1515   1.423       .  A
C1515      C1516   1.404       .  A
C1515      N1522   1.431       .  S
C1516      C1517   1.405       .  A
C1516      H1521   1.084       .  S
C1517      C1518   1.415       .  A
C1518      N1519   1.431       .  S
N1519      H1523   1.045       .  S
N1519      H1524   1.045       .  S
N1522      H1525   1.045       .  S
N1522      H1526   1.031       .  S
C1527      C1528   1.426       .  A
C1527      C1532   1.425       .  A
C1527      H1534   1.083       .  S
C1528      C1529   1.427       .  A
C1529      C1530   1.402       .  A
C1529      N1536   1.426       .  S
C1530      C1531   1.419       .  A
C1530      H1535   1.079       .  S
C1531      C1532   1.423       .  A
C1532      N1533   1.429       .  S
N1533      H1537   1.045       .  S
N1533      H1538   1.045       .  S
N1536      H1539   1.045       .  S
N1536      H1540   1.045       .  S
C1541      C1542   1.416       .  A
C1541      C1546   1.400       .  A
C1541      H1548   1.084       .  S
C1542      C1543   1.429       .  A
C1543      C1544   1.408       .  A
C1543      N1550   1.430       .  S
C1544      C1545   1.400       .  A
C1544      H1549   1.084       .  S
C1545      C1546   1.414       .  A
C1546      N1547   1.432       .  S
N1547      H1551   1.045       .  S
N1547      H1552   1.045       .  S
N1550      H1553   1.046       .  S
N1550      H1554   1.046       .  S
C1555      C1556   1.393       .  A
C1555      C1560   1.381       .  A
C1555      H1562   1.062       .  S
C1556      C1557   1.446       .  A
C1557      C1558   1.442       .  A
C1557      N1564   1.429       .  S
C1558      C1559   1.425       .  A
C1558      H1563   1.079       .  S
C1559      C1560   1.410       .  A
C1560      N1561   1.423       .  S
N1561      H1565   1.027       .  S
N1561      H1566   1.037       .  S
N1564      H1567   1.046       .  S
N1564      H1568   1.045       .  S
C1569      C1570   1.392       .  A
C1569      C1574   1.381       .  A
C1569      H1576   1.029       .  S
C1570      C1571   1.436       .  A
C1571      C1572   1.432       .  A
C1571      N1578   1.436       .  S
C1572      C1573   1.433       .  A
C1572      H1577   1.071       .  S
C1573      C1574   1.408       .  A
C1574      N1575   1.428       .  S
N1575      H1579   1.033       .  S
N1575      H1580   1.043       .  S
N1578      H1581   1.045       .  S
N1578      H1582   1.046       .  S
C1583      C1584   1.412       .  A
C1583      C1588   1.395       .  A
C1583      H1590   1.078       .  S
C1584      C1585   1.430       .  A
C1585      C1586   1.417       .  A
C1585      N1592   1.429       .  S
C1586      C1587   1.403       .  A
C1586      H1591   1.084       .  S
C1587      C1588   1.403       .  A
C1588      N1589   1.434       .  S
N1589      H1593   1.046       .  S
N1589      H1594   1.046       .  S
N1592      H1595   1.046       .  S
N1592      H1596   1.046       .  S
C1597      C1598   1.418       .  A
C1597      C1602   1.429       .  A
C1597      H1604   1.081       .  S
C1598      C1599   1.422       .  A
C1599      C1600   1.416       .  A
C1599      N1606   1.432       .  S
C1600      C1601   1.418       .  A
C1600      H1605   1.082       .  S
C1601      C1602   1.423       .  A
C1602      N1603   1.437       .  S
N1603      H1607   1.045       .  S
N1603      H1608   1.045       .  S
N1606      H1609   1.045       .  S
N1606      H1610   1.045       .  S
C1611      C1612   1.409       .  A
C1611      C1616   1.400       .  A
C1611      H1618   1.046       .  S
C1612      C1613   1.431       .  A
C1613      C1614   1.441       .  A
C1613      N1620   1.430       .  S
C1614      C1615   1.431       .  A
C1614      H1619   1.083       .  S
C1615      C1616   1.423       .  A
C1616      N1617   1.423       .  S
N1617      H1621   1.042       .  S
N1617      H1622   1.046       .  S
N1620      H1623   1.045       .  S
N1620      H1624   1.045       .  S
C1625      C1626   1.412       .  A
C1625      C1630   1.399       .  A
C1625      H1632   1.081       .  S
C1626      C1627   1.428       .  A
C1627      C1628   1.409       .  A
C1627      N1634   1.431       .  S
C1628      C1629   1.400       .  A
C1628      H1633   1.084       .  S
C1629      C1630   1.416       .  A
C1630      N1631   1.432       .  S
N1631      H1635   1.045       .  S
N1631      H1636   1.045       .  S
N1634      H1637   1.046       .  S
N1634      H1638   1.046       .  S
C1639      C1640   1.384       .  A
C1639      C1644   1.366       .  A
C1639      H1646   1.049       .  S
C1640      C1641   1.450       .  A
C1641      C1642   1.445       .  A
C1641      N1648   1.433       .  S
C1642      C1643   1.427       .  A
C1642      H1647   1.082       .  S
C1643      C1644   1.414       .  A
C1644      N1645   1.421       .  S
N1645      H1649   1.029       .  S
N1645      H1650   1.041       .  S
N1648      H1651   1.042       .  S
N1648      H1652   1.044       .  S
C1653      C1654   1.417       .  A
C1653      C1658   1.411       .  A
C1653      H1660   1.082       .  S
C1654      C1655   1.430       .  A
C1655      C1656   1.421       .  A
C1655      N1662   1.436       .  S
C1656      C1657   1.424       .  A
C1656      H1661   1.081       .  S
C1657      C1658   1.430       .  A
C1658      N1659   1.428       .  S
N1659      H1663   1.042       .  S
N1659      H1664   1.039       .  S
N1662      H1665   1.042       .  S
N1662      H1666   1.045       .  S
C1667      C1668   1.421       .  A
C1667      C1672   1.433       .  A
C1667      H1674   1.076       .  S
C1668      C1669   1.414       .  A
C1669      C1670   1.390       .  A
C1669      N1676   1.407       .  S
C1670      C1671   1.387       .  A
C1670      H1675   1.065       .  S
C1671      C1672   1.447       .  A
C1672      N1673   1.429       .  S
N1673      H1677   1.041       .  S
N1673      H1678   1.044       .  S
N1676      H1679   1.043       .  S
N1676      H1680   1.041       .  S
