geometry optimzed in LAMMPS
_audit_creation_date              2020-11-30 
_audit_creation_method            'lammps2cif' 
_symmetry_space_group_name_H-M    'P1' 
_symmetry_Int_Tables_number       1 
_symmetry_cell_setting            triclinic 
loop_ 
_symmetry_equiv_pos_as_xyz 
  x,y,z 
_cell_length_a                    35.96494868 
_cell_length_b                    36.05201051882188 
_cell_length_c                    35.99296760238144 
_cell_angle_alpha                 89.98103002106824 
_cell_angle_beta                  90.02981850734663 
_cell_angle_gamma                 90.04353852225677 
loop_ 
_atom_site_label 
_atom_site_type_symbol 
_atom_site_fract_x 
_atom_site_fract_y 
_atom_site_fract_z 
_atom_site_charge 
O1          O  0.31605706  0.76432590  0.47230265    -0.72700
C2          C  0.32808911  0.69584782  0.56950840     0.88400
O3          O  0.27809070  0.63042548  0.45707042    -0.73800
O4          O  0.20911878  0.67986489  0.57347028    -0.75300
O5          O  0.19805493  0.78086885  0.50862692    -0.75100
O6          O  0.26251637  0.78136129  0.44563959    -0.73700
Zn7        Zn  0.30486195  0.71268641  0.49015120     1.55700
O8          O  0.22595851  0.76965630  0.56315097    -0.75100
Cd9        Cd  0.22504849  0.74603295  0.47182045     1.59700
Cd10       Cd  0.23616308  0.65743946  0.48726149     1.59600
O11         O  0.18644904  0.72103881  0.43577935    -0.75100
O12         O  0.25316854  0.70815816  0.50028959    -1.85600
Cd13       Cd  0.24735508  0.71700237  0.55400872     1.59900
O14         O  0.19258766  0.66100743  0.45015687    -0.75000
O15         O  0.29632632  0.70467183  0.58247521    -0.73700
C16         C  0.30636369  0.64526414  0.44139158     0.88800
C17         C  0.29686310  0.78676781  0.45278831     0.88500
O18         O  0.33540487  0.69798804  0.53497518    -0.72600
C19         C  0.20437397  0.78883220  0.54254898     0.89300
O20         O  0.31789791  0.67751192  0.44974120    -0.72700
C21         C  0.17696445  0.68704283  0.43211359     0.89400
C22         C  0.20113536  0.64681301  0.56412065     0.89800
O23         O  0.21338679  0.63169026  0.53436216    -0.75200
O24         O  0.83470561  0.69958732  0.96350734    -0.72700
C25         C  0.79664741  0.78754915  0.04680783     0.88400
O26         O  0.77782296  0.63166791  0.04223431    -0.73800
O27         O  0.68621613  0.72179090  0.06402914    -0.75300
O28         O  0.72427483  0.77032852  0.93616891    -0.75100
O29         O  0.79518872  0.70604869  0.91630678    -0.73700
Zn30       Zn  0.80443349  0.71390328  0.00860929     1.55700
O31         O  0.69721430  0.78171685  0.99106333    -0.75100
Cd32       Cd  0.74632082  0.71791281  0.94515703     1.59700
Cd33       Cd  0.73567440  0.65845206  0.01212197     1.59600
O34         O  0.70842623  0.68034099  0.92575790    -0.75100
O35         O  0.75257909  0.70918600  0.99890958    -1.85600
Cd36       Cd  0.72459821  0.74693483  0.02771441     1.59900
O37         O  0.71319479  0.63234414  0.96504750    -0.75000
O38         O  0.76228022  0.78216058  0.05386848    -0.73700
C39         C  0.80645901  0.64638231  0.05737557     0.88800
C40         C  0.82711939  0.69741872  0.92903114     0.88500
O41         O  0.81572344  0.76536174  0.02692189    -0.72600
C42         C  0.70293101  0.78950592  0.95699108     0.89300
O43         O  0.81804866  0.67852604  0.04870075    -0.72700
C44         C  0.70084950  0.64720656  0.93517436     0.89400
C45         C  0.67663067  0.68779568  0.06758088     0.89800
O46         O  0.69209083  0.66184311  0.04929729    -0.75200
O47         O  0.19562885  0.53844533  0.16411861    -0.72700
C48         C  0.28364485  0.45650822  0.20432530     0.88400
O49         O  0.12685430  0.46142039  0.22160209    -0.73800
O50         O  0.21771633  0.44071655  0.31438477    -0.75300
O51         O  0.26548363  0.56812644  0.27357350    -0.75100
O52         O  0.20073742  0.58617477  0.20301416    -0.73700
Zn53       Zn  0.20969584  0.49410445  0.19548577     1.55700
O54         O  0.27732027  0.51413503  0.30207770    -0.75100
Cd55       Cd  0.21280542  0.55833112  0.25233564     1.59700
Cd56       Cd  0.15372123  0.49116046  0.26398381     1.59600
O57         O  0.17545641  0.57780521  0.29033141    -0.75100
O58         O  0.20453296  0.50453969  0.24706163    -1.85600
Cd59       Cd  0.24261264  0.47667161  0.27563849     1.59900
O60         O  0.12772733  0.53792942  0.28715146    -0.75000
O61         O  0.27815820  0.45000796  0.23874628    -0.73700
C62         C  0.14191203  0.44580505  0.19344144     0.88800
C63         C  0.19296714  0.57293852  0.17110762     0.88500
O64         O  0.26134127  0.47585843  0.18481224    -0.72600
C65         C  0.28498367  0.54800614  0.29529863     0.89300
O66         O  0.17439758  0.45395992  0.18229961    -0.72700
C67         C  0.14260318  0.56801693  0.29888043     0.89400
C68         C  0.18359004  0.43626177  0.32331415     0.89800
O69         O  0.15734969  0.45367901  0.30724668    -0.75200
O70         O  0.53551228  0.16794125  0.19361808    -0.72700
C71         C  0.45453918  0.20558237  0.28349890     0.88400
O72         O  0.45672554  0.22597396  0.12673681    -0.73800
O73         O  0.43487155  0.31579873  0.21843395    -0.75300
O74         O  0.56354093  0.27753465  0.26571348    -0.75100
O75         O  0.58298879  0.20690989  0.20089055    -0.73700
Zn76       Zn  0.49065392  0.19834899  0.20852622     1.55700
O77         O  0.50899927  0.30530066  0.27709836    -0.75100
Cd78       Cd  0.55431914  0.25584405  0.21307654     1.59700
Cd79       Cd  0.48689534  0.26777039  0.15398681     1.59600
O80         O  0.57381217  0.29392199  0.17580122    -0.75100
O81         O  0.50046248  0.25010892  0.20441418    -1.85600
Cd82       Cd  0.47200882  0.27773303  0.24277250     1.59900
O83         O  0.53385180  0.29089202  0.12809349    -0.75000
O84         O  0.44719759  0.23987354  0.27861566    -0.73700
C85         C  0.44145109  0.19734857  0.14124727     0.88800
C86         C  0.57010490  0.17520337  0.19185080     0.88500
O87         O  0.47343951  0.18668049  0.26032730    -0.72600
C88         C  0.54302235  0.29915660  0.28490171     0.89300
O89         O  0.45012125  0.18543649  0.17332195    -0.72700
C90         C  0.56407004  0.30247781  0.14295549     0.89400
C91         C  0.43115000  0.32583255  0.18454229     0.89800
O92         O  0.44949904  0.31095929  0.15827204    -0.75200
O93         O  0.33455239  0.19780943  0.46366004    -0.72700
C94         C  0.29578085  0.28738559  0.54379604     0.88400
O95         O  0.27737991  0.13109898  0.54213102    -0.73800
O96         O  0.18497246  0.22208842  0.56211065    -0.75300
O97         O  0.22523120  0.26886855  0.43374881    -0.75100
O98         O  0.29570215  0.20347942  0.41583155    -0.73700
Zn99       Zn  0.30367056  0.21281445  0.50796799     1.55700
O100        O  0.19713326  0.28095552  0.48795848    -0.75100
Cd101      Cd  0.24645573  0.21615364  0.44383991     1.59700
Cd102      Cd  0.23506568  0.15767460  0.51184396     1.59600
O103        O  0.20830249  0.17860704  0.42492518    -0.75100
O104        O  0.25195758  0.20816362  0.49779615    -1.85600
Cd105      Cd  0.22372519  0.24654685  0.52553765     1.59900
O106        O  0.21179169  0.13129374  0.46521883    -0.75000
O107        O  0.26139520  0.28229272  0.55103397    -0.73700
C108        C  0.30572860  0.14611762  0.55755051     0.88800
C109        C  0.32750201  0.19518278  0.42912328     0.88500
O110        O  0.31484627  0.26454829  0.52472329    -0.72600
C111        C  0.20374571  0.28852390  0.45399617     0.89300
O112        O  0.31705192  0.17836480  0.54892224    -0.72700
C113        C  0.19992896  0.14584427  0.43498052     0.89400
C114        C  0.17591062  0.18804874  0.56666858     0.89800
O115        O  0.19184818  0.16180926  0.54924993    -0.75200
O116        O  0.76130263  0.53128150  0.18329467    -0.72700
C117        C  0.69227665  0.43377069  0.17112780     0.88400
O118        O  0.62673739  0.54545373  0.22130575    -0.73800
O119        O  0.67666919  0.42939641  0.29039834    -0.75300
O120        O  0.77719457  0.49426279  0.30160098    -0.75100
O121        O  0.77876989  0.55730040  0.23694585    -0.73700
Zn122      Zn  0.70950728  0.51301895  0.19452436     1.55700
O123        O  0.76611733  0.44010180  0.27306799    -0.75100
Cd124      Cd  0.74288178  0.53143432  0.27434591     1.59700
Cd125      Cd  0.65396483  0.51576901  0.26362637     1.59600
O126        O  0.71786125  0.56784379  0.31266557    -0.75100
O127        O  0.70476639  0.50296705  0.24628988    -1.85600
Cd128      Cd  0.71336772  0.44924845  0.25192476     1.59900
O129        O  0.65766959  0.55341991  0.30669668    -0.75000
O130        O  0.70067611  0.42084609  0.20301586    -0.73700
C131        C  0.64145640  0.56109076  0.19293189     0.88800
C132        C  0.78400176  0.55053323  0.20251832     0.88500
O133        O  0.69487998  0.46822209  0.16376622    -0.72600
C134        C  0.78510709  0.46041699  0.29507414     0.89300
O135        O  0.67387020  0.55303468  0.18147792    -0.72700
C136        C  0.68378034  0.57163494  0.32209971     0.89400
C137        C  0.64367997  0.43865557  0.29890444     0.89800
O138        O  0.62847255  0.46857915  0.28712822    -0.75200
O139        O  0.02672496  0.31985202  0.23888510    -0.72700
C140        C  0.92937629  0.33081129  0.30680460     0.88400
O141        O  0.04287024  0.28120743  0.37251720    -0.73800
O142        O  0.92612121  0.21269189  0.32393447    -0.75300
O143        O  0.99168703  0.20213665  0.22153686    -0.75100
O144        O  0.05426124  0.26691805  0.22183560    -0.73700
Zn145      Zn  0.00896893  0.30825564  0.29049783     1.55700
O146        O  0.93658631  0.22842666  0.23370456    -0.75100
Cd147      Cd  0.02828391  0.22906175  0.25678922     1.59700
Cd148      Cd  0.01288748  0.23920113  0.34554263     1.59600
O149        O  0.06471217  0.19060090  0.28136293    -0.75100
O150        O  0.99943006  0.25649036  0.29494089    -1.85600
Cd151      Cd  0.94566003  0.25029194  0.28623286     1.59900
O152        O  0.05024990  0.19589523  0.34153570    -0.75000
O153        O  0.91675202  0.29900250  0.29787297    -0.73700
C154        C  0.05792143  0.30987027  0.35788435     0.88800
C155        C  0.04662780  0.30106581  0.21647472     0.88500
O156        O  0.96389789  0.33839631  0.30507422    -0.72600
C157        C  0.95749882  0.20766664  0.21401037     0.89300
O158        O  0.04919131  0.32159562  0.32577131    -0.72700
C159        C  0.06841917  0.18073247  0.31529074     0.89400
C160        C  0.93569308  0.20473831  0.35697960     0.89800
O161        O  0.96586604  0.21654661  0.37175339    -0.75200
O162        O  0.80659756  0.03977008  0.33436134    -0.72700
C163        C  0.71701774  0.95810848  0.29704714     0.88400
O164        O  0.87396882  0.96188959  0.27684913    -0.73800
O165        O  0.78322361  0.93838041  0.18700094    -0.75300
O166        O  0.73354475  0.06636556  0.22490599    -0.75100
O167        O  0.79826183  0.08701731  0.29541846    -0.73700
Zn168      Zn  0.79173434  0.99488053  0.30409798     1.55700
O169        O  0.72320842  0.01182937  0.19683923    -0.76700
Cd170      Cd  0.78640623  0.05815164  0.24650476     1.59700
Cd171      Cd  0.84664789  0.99184179  0.23484810     1.59600
O172        O  0.82342837  0.07821888  0.20842167    -0.75100
O173        O  0.79589171  0.00458442  0.25228765    -1.85600
Cd174      Cd  0.75798712  0.97544997  0.22470588     1.59900
O175        O  0.87185297  0.03924212  0.21179107    -0.75000
O176        O  0.72220191  0.95050475  0.26278461    -0.73700
C177        C  0.85921833  0.94613182  0.30512599     0.88800
C178        C  0.80780278  0.07429781  0.32707501     0.88500
O179        O  0.73990604  0.97748567  0.31588543    -0.72600
C180        C  0.71475657  0.04559841  0.20312553     0.89300
O181        O  0.82699934  0.95449835  0.31688273    -0.72700
C182        C  0.85652526  0.06912208  0.20008606     0.89400
C183        C  0.81722413  0.93513953  0.17702469     0.89800
O184        O  0.84317050  0.95417932  0.19170179    -0.75200
O185        O  0.68450758  0.74173291  0.47082562    -0.72700
C186        C  0.67176561  0.80918279  0.56863264     0.88400
O187        O  0.72240035  0.87555895  0.45600777    -0.73800
O188        O  0.79043551  0.82656885  0.57280379    -0.75300
O189        O  0.80296772  0.72564892  0.50805259    -0.75100
O190        O  0.73834086  0.72430402  0.44504336    -0.73700
Zn191      Zn  0.69539189  0.79328953  0.48909820     1.55700
O192        O  0.77445407  0.73676529  0.56224687    -0.75100
Cd193      Cd  0.77569449  0.76003613  0.47085171     1.59700
Cd194      Cd  0.76454252  0.84852579  0.48586569     1.59600
O195        O  0.81404470  0.78493341  0.43426415    -0.75100
O196        O  0.74723200  0.79792970  0.49909508    -1.85600
Cd197      Cd  0.75272600  0.78914697  0.55290366     1.59900
O198        O  0.80793682  0.84498834  0.44842068    -0.75000
O199        O  0.70366585  0.80065704  0.58144671    -0.73700
C200        C  0.69382529  0.86095165  0.44064247     0.88800
C201        C  0.70388248  0.71909244  0.45175359     0.88500
O202        O  0.66446611  0.80733835  0.53406041    -0.72600
C203        C  0.79641607  0.71775018  0.54196095     0.89300
O204        O  0.68216293  0.82875234  0.44900803    -0.72700
C205        C  0.82345730  0.81893746  0.43032521     0.89400
C206        C  0.79876710  0.85948184  0.56326446     0.89800
O207        O  0.78725481  0.87432101  0.53304432    -0.75200
C208        C  0.90675661  0.86157374  0.36477112     0.03300
C209        C  0.85882061  0.13761566  0.40745349     0.03300
C210        C  0.86608007  0.90974474  0.64016691     0.03300
C211        C  0.13270867  0.09665703  0.35747917     0.03300
C212        C  0.09326507  0.14457013  0.63240519     0.03300
C213        C  0.14212524  0.86948825  0.59197188     0.03300
O214        O  0.02851455  0.02839404  0.41477554    -0.72700
C215        C  0.96577131  0.92623061  0.43599786     0.88400
O216        O  0.93004644  0.06443572  0.49873232    -0.73800
O217        O  0.95661777  0.94475882  0.55566745    -0.75300
O218        O  0.08503609  0.97369314  0.52474090    -0.75100
O219        O  0.07549581  0.03469423  0.45478110    -0.73700
Zn220      Zn  0.98569848  0.00834158  0.44576468     1.55700
O221        O  0.04400829  0.92753992  0.53052745    -0.75100
Cd222      Cd  0.05313699  0.01722997  0.50451326     1.59700
Cd223      Cd  0.96785646  0.03485718  0.53081665     1.59600
O224        O  0.05788859  0.06068405  0.54173396    -0.75100
O225        O  0.99984213  0.00276063  0.49783624    -1.85600
Cd226      Cd  0.99414239  0.94955678  0.51260081     1.59900
O227        O  0.99999877  0.07292396  0.56055874    -0.75000
O228        O  0.97457123  0.91737289  0.46907194    -0.73700
C229        C  0.92447284  0.06474011  0.46376981     0.88800
C230        C  0.06189284  0.03760831  0.42228447     0.88500
O231        O  0.96880417  0.95931039  0.42390760    -0.72600
C232        C  0.07676811  0.94052319  0.53368182     0.89300
O233        O  0.94325685  0.04480783  0.44140035    -0.72700
C234        C  0.03490920  0.07911848  0.56127181     0.89400
C235        C  0.93719393  0.96762662  0.57430911     0.89800
O236        O  0.93812769  0.00252255  0.56858362    -0.75200
O237        O  0.66489257  0.30777677  0.46470799    -0.72700
C238        C  0.70298666  0.21941928  0.54772519     0.88400
O239        O  0.72273213  0.37576461  0.54302287    -0.73800
O240        O  0.81352234  0.28478843  0.56539847    -0.75300
O241        O  0.77491369  0.23627137  0.43763184    -0.75100
O242        O  0.70427142  0.30044535  0.41758780    -0.73700
Zn243      Zn  0.69525985  0.29354545  0.50996842     1.55700
O244        O  0.80227622  0.22495069  0.49240795    -0.75100
Cd245      Cd  0.75313129  0.28876032  0.44648432     1.59700
Cd246      Cd  0.76464295  0.34846643  0.51306694     1.59600
O247        O  0.79090631  0.32607731  0.42647440    -0.75100
O248        O  0.74716784  0.29783570  0.50018955    -1.85600
Cd249      Cd  0.77504946  0.25990847  0.52900387     1.59900
O250        O  0.78717497  0.37418778  0.46568781    -0.75000
O251        O  0.73735314  0.22464972  0.55487363    -0.73700
C252        C  0.69392142  0.36144740  0.55820645     0.88800
C253        C  0.67242193  0.30944050  0.43018360     0.88500
O254        O  0.68386762  0.24201221  0.52829171    -0.72600
C255        C  0.79631806  0.21707784  0.45839112     0.89300
O256        O  0.68203136  0.32933045  0.54981431    -0.72700
C257        C  0.79887234  0.35917976  0.43563439     0.89400
C258        C  0.82339409  0.31871986  0.56874346     0.89800
O259        O  0.80818909  0.34471047  0.55026968    -0.75200
O260        O  0.03563024  0.66920404  0.69371332    -0.72700
C261        C  0.95428340  0.70699708  0.78325331     0.88400
O262        O  0.95676376  0.72638544  0.62694500    -0.73800
O263        O  0.93534263  0.81731764  0.71744861    -0.75300
O264        O  0.06369211  0.77879204  0.76532365    -0.75100
O265        O  0.08316684  0.70820880  0.70037265    -0.73700
Zn266      Zn  0.99098161  0.69968598  0.70880140     1.55700
O267        O  0.00892971  0.80611379  0.77687137    -0.75100
Cd268      Cd  0.05456483  0.75716511  0.71265005     1.59700
Cd269      Cd  0.98723424  0.76846920  0.65349898     1.59600
O270        O  0.07395140  0.79515300  0.67525764    -0.75100
O271        O  0.00071978  0.75135539  0.70412801    -1.85600
Cd272      Cd  0.97199145  0.77897326  0.74223598     1.59900
O273        O  0.03432041  0.79123247  0.62733773    -0.75000
O274        O  0.94654571  0.74114392  0.77785981    -0.73700
C275        C  0.94137568  0.69806345  0.64195032     0.88800
C276        C  0.07019450  0.67646243  0.69159474     0.88500
O277        O  0.97396122  0.68820401  0.76066100    -0.72600
C278        C  0.04297692  0.80010171  0.78465882     0.89300
O279        O  0.95015923  0.68654569  0.67412718    -0.72700
C280        C  0.06440396  0.80317484  0.64222125     0.89400
C281        C  0.93169219  0.82705618  0.68345162     0.89800
O282        O  0.94997108  0.81182329  0.65733588    -0.75200
C283        C  0.13356752  0.59622208  0.64042594     0.03300
C284        C  0.14135764  0.37033490  0.40635472     0.03300
C285        C  0.85813011  0.63748108  0.59293385     0.03300
C286        C  0.86482910  0.40994654  0.35781701     0.03300
C287        C  0.90654630  0.36248572  0.63347557     0.03300
C288        C  0.09344487  0.64464400  0.36691109     0.03300
O289        O  0.02510732  0.58661366  0.46997963    -0.72700
C290        C  0.92358886  0.56625768  0.53444328     0.88400
O291        O  0.06105113  0.50349477  0.56960702    -0.73800
O292        O  0.94122468  0.44636938  0.54258783    -0.75300
O293        O  0.96933407  0.47646990  0.41482051    -0.75100
O294        O  0.03050306  0.54655790  0.42305572    -0.73700
Zn295      Zn  0.00536707  0.55612212  0.51312514     1.55700
O296        O  0.92297800  0.47238707  0.45586695    -0.75100
Cd297      Cd  0.01326254  0.49702291  0.44606773     1.59700
Cd298      Cd  0.03153655  0.47144520  0.53154657     1.59600
O299        O  0.05689848  0.45995732  0.44151087    -0.75100
O300        O  0.99928543  0.50414323  0.49939182    -1.85600
Cd301      Cd  0.94590200  0.48975798  0.50551857     1.59900
O302        O  0.06982195  0.44201897  0.49953330    -0.75000
O303        O  0.91440434  0.53323991  0.52597934    -0.73700
C304        C  0.06174243  0.53848408  0.57463009     0.88800
C305        C  0.03381415  0.57901485  0.43653805     0.88500
O306        O  0.95667274  0.57827402  0.53056722    -0.72600
C307        C  0.93591415  0.46838157  0.42321703     0.89300
O308        O  0.04218797  0.56070837  0.55527877    -0.72700
C309        C  0.07574889  0.44094210  0.46462616     0.89400
C310        C  0.96423295  0.42761974  0.56179568     0.89800
O311        O  0.99919748  0.43342630  0.56088625    -0.75200
C312        C  0.64037804  0.36969860  0.09166157     0.03300
C313        C  0.59312820  0.64479518  0.13255706     0.03300
C314        C  0.40652149  0.36177175  0.86541078     0.03300
C315        C  0.35641818  0.63652812  0.90540617     0.03300
C316        C  0.63327343  0.59567990  0.85935200     0.03300
C317        C  0.36557507  0.40898975  0.14231365     0.03300
O318        O  0.45435069  0.57824295  0.96862690    -0.72700
C319        C  0.53280047  0.58019933  0.06243592     0.88400
O320        O  0.55998630  0.50412316  0.93058062    -0.73800
O321        O  0.55523984  0.46061242  0.05803634    -0.75300
O322        O  0.42212256  0.47202846  0.04437980    -0.75100
O323        O  0.41236160  0.53299148  0.97408060    -0.73700
Zn324      Zn  0.50341875  0.55676686  0.98617182     1.55700
O325        O  0.46845575  0.47804816  0.08526788    -0.75100
Cd326      Cd  0.44434072  0.48964856  0.99435691     1.59700
Cd327      Cd  0.52987017  0.47205294  0.96801035     1.59600
O328        O  0.43977332  0.44630162  0.95703811    -0.75100
O329        O  0.49763027  0.50474674  0.00012476    -1.85600
Cd330      Cd  0.51209320  0.49813909  0.05340223     1.59900
O331        O  0.49771781  0.43444259  0.93803565    -0.75000
O332        O  0.53005085  0.54767492  0.07589464    -0.73700
C333        C  0.56051835  0.53906772  0.92529475     0.88800
C334        C  0.42128152  0.56599128  0.96518516     0.88500
O335        O  0.52324649  0.58777102  0.02918389    -0.72600
C336        C  0.43522666  0.46898240  0.07710910     0.89300
O337        O  0.54047388  0.56131002  0.94411013    -0.72700
C338        C  0.46284460  0.42814780  0.93734458     0.89400
C339        C  0.57361104  0.44110296  0.03500372     0.89800
O340        O  0.56756366  0.44204171  0.00011511    -0.75200
O341        O  0.30565033  0.46733747  0.66294943    -0.72700
C342        C  0.21608197  0.54835565  0.70138936     0.88400
O343        O  0.37295204  0.54521685  0.72121412    -0.73800
O344        O  0.28114861  0.56657809  0.81185600    -0.75300
O345        O  0.23379081  0.43844203  0.77223803    -0.75100
O346        O  0.29878195  0.41977553  0.70179331    -0.73700
Zn347      Zn  0.29081946  0.51185003  0.69365874     1.55700
O348        O  0.22254953  0.49261799  0.80055524    -0.75100
Cd349      Cd  0.28648774  0.44799824  0.75079395     1.59700
Cd350      Cd  0.34566766  0.51531092  0.76320165     1.59600
O351        O  0.32381274  0.42833674  0.78871981    -0.75100
O352        O  0.29519585  0.50176523  0.74542564    -1.85600
Cd353      Cd  0.25688230  0.52980532  0.77339664     1.59900
O354        O  0.37150865  0.46831432  0.78604548    -0.75000
O355        O  0.22108823  0.55512955  0.73583123    -0.73700
C356        C  0.35840684  0.56046682  0.69256187     0.88800
C357        C  0.30769365  0.43283787  0.67012152     0.88500
O358        O  0.23905663  0.52952282  0.68216050    -0.72600
C359        C  0.21466173  0.45875297  0.79409925     0.89300
O360        O  0.32621515  0.55201495  0.68076395    -0.72700
C361        C  0.35666593  0.43805702  0.79737041     0.89400
C362        C  0.31506428  0.57065534  0.82176797     0.89800
O363        O  0.34147487  0.55267148  0.80664082    -0.75200
C364        C  0.64127355  0.63716595  0.40525768     0.03300
C365        C  0.63284511  0.41088269  0.64064268     0.03300
C366        C  0.40781088  0.64386278  0.63285951     0.03300
C367        C  0.36623029  0.59747231  0.35709043     0.03300
C368        C  0.59337012  0.36104539  0.36558202     0.03300
C369        C  0.35875172  0.36886511  0.59044940     0.03300
O370        O  0.45754492  0.42831294  0.52893498    -0.72700
C371        C  0.53531936  0.42729541  0.43602867     0.88400
O372        O  0.56156202  0.50384012  0.56890755    -0.73800
O373        O  0.55765689  0.54642501  0.44029677    -0.75300
O374        O  0.42428258  0.53470251  0.45424772    -0.75100
O375        O  0.41515964  0.47315898  0.52382919    -0.73700
Zn376      Zn  0.50644314  0.45060951  0.51235465     1.55700
O377        O  0.47050479  0.52946777  0.41320785    -0.75100
Cd378      Cd  0.44677235  0.51702197  0.50410392     1.59700
Cd379      Cd  0.53226103  0.53541159  0.53034050     1.59600
O380        O  0.44196865  0.56025926  0.54154716    -0.75100
O381        O  0.50014765  0.50248263  0.49826457    -1.85600
Cd382      Cd  0.51424212  0.50917048  0.44490765     1.59900
O383        O  0.50000585  0.57352670  0.55942246    -0.75000
O384        O  0.53172302  0.45960652  0.42227951    -0.73700
C385        C  0.56201289  0.46893887  0.57449474     0.88800
C386        C  0.42435054  0.44012844  0.53226978     0.88500
O387        O  0.52679701  0.41991474  0.46958220    -0.72600
C388        C  0.43722450  0.53814318  0.42151485     0.89300
O389        O  0.54258888  0.44649076  0.55523310    -0.72700
C390        C  0.46504581  0.57916634  0.56058400     0.89400
C391        C  0.57631896  0.56572417  0.46332399     0.89800
O392        O  0.57041728  0.56479064  0.49822942    -0.75200
O393        O  0.47285671  0.68611029  0.73951030    -0.72700
C394        C  0.56921244  0.67521315  0.80805753     0.88400
O395        O  0.45558430  0.72583510  0.87268553    -0.73800
O396        O  0.57278853  0.79377489  0.82313430    -0.75300
O397        O  0.50767454  0.80415667  0.72173180    -0.75100
O398        O  0.44567163  0.73894978  0.72150032    -0.73700
Zn399      Zn  0.48983277  0.69804697  0.79123694     1.55700
O400        O  0.56229303  0.77664872  0.73337682    -0.75100
Cd401      Cd  0.47087236  0.77707538  0.75666846     1.59700
Cd402      Cd  0.48611427  0.76746921  0.84549782     1.59600
O403        O  0.43414533  0.81549151  0.78087472    -0.75100
O404        O  0.49947949  0.74976108  0.79510089    -1.85600
Cd405      Cd  0.55321074  0.75550986  0.78618772     1.59900
O406        O  0.44905934  0.81093161  0.84101900    -0.75000
O407        O  0.58200918  0.70682444  0.79862568    -0.73700
C408        C  0.44032536  0.69724163  0.85808397     0.88800
C409        C  0.45346964  0.70478248  0.71653535     0.88500
O410        O  0.53463420  0.66786614  0.80652488    -0.72600
C411        C  0.54169776  0.79800245  0.71396185     0.89300
O412        O  0.44918118  0.68527591  0.82611745    -0.72700
C413        C  0.43070732  0.82578004  0.81470231     0.89400
C414        C  0.56338736  0.80208767  0.85612246     0.89800
O415        O  0.53335973  0.79032161  0.87122792    -0.75200
O416        O  0.23950073  0.97715514  0.18463271    -0.72700
C417        C  0.30777851  0.07405330  0.17355670     0.88400
O418        O  0.37283788  0.95997073  0.22356678    -0.73800
O419        O  0.32451298  0.07682243  0.29261401    -0.75300
O420        O  0.22141196  0.01317883  0.30221114    -0.75100
O421        O  0.22164676  0.95032911  0.23777644    -0.73700
Zn422      Zn  0.29111638  0.99465410  0.19633567     1.55700
O423        O  0.23424305  0.06772199  0.27526302    -0.75100
Cd424      Cd  0.25666719  0.97613450  0.27585099     1.59700
Cd425      Cd  0.34586037  0.99043734  0.26543563     1.59600
O426        O  0.28103474  0.93975304  0.31468051    -0.75100
O427        O  0.29530326  0.00427342  0.24818165    -1.85600
Cd428      Cd  0.28708592  0.05801093  0.25431201     1.59900
O429        O  0.34141877  0.95341523  0.30886657    -0.75000
O430        O  0.29943465  0.08674653  0.20553157    -0.73700
C431        C  0.35823181  0.94518853  0.19469650     0.88800
C432        C  0.21671209  0.95766462  0.20342242     0.88500
O433        O  0.30561729  0.03962188  0.16606733    -0.72600
C434        C  0.21410432  0.04723914  0.29605594     0.89300
O435        O  0.32624903  0.95431083  0.18285007    -0.72700
C436        C  0.31504076  0.93566174  0.32431019     0.89400
C437        C  0.35753314  0.06707216  0.30052657     0.89800
O438        O  0.37226398  0.03712209  0.28833766    -0.75200
O439        O  0.16507947  0.80963590  0.96432074    -0.72700
C440        C  0.20406970  0.71966044  0.04460288     0.88400
O441        O  0.22352243  0.87632769  0.04234724    -0.73800
O442        O  0.31499870  0.78486484  0.06281875    -0.75300
O443        O  0.27353143  0.73785943  0.93457124    -0.75100
O444        O  0.20385352  0.80369314  0.91653158    -0.73700
Zn445      Zn  0.19616932  0.79454320  0.00871889     1.55700
O446        O  0.30229536  0.72573507  0.98846627    -0.75100
Cd447      Cd  0.25304239  0.79077984  0.94450786     1.59700
Cd448      Cd  0.26544978  0.84933287  0.01205648     1.59600
O449        O  0.29134757  0.82786883  0.92506619    -0.75100
O450        O  0.24792682  0.79892865  0.99843453    -1.85600
Cd451      Cd  0.27613463  0.76044480  0.02619449     1.59900
O452        O  0.28841996  0.87539048  0.96510602    -0.75000
O453        O  0.23848413  0.72473438  0.05172649    -0.73700
C454        C  0.19508435  0.86161696  0.05787675     0.88800
C455        C  0.17209808  0.81215367  0.92975645     0.88500
O456        O  0.18488125  0.74269520  0.02580524    -0.72600
C457        C  0.29510637  0.71807962  0.95461241     0.89300
O458        O  0.18340801  0.82943826  0.04944292    -0.72700
C459        C  0.29989498  0.86066582  0.93482819     0.89400
C460        C  0.32438170  0.81886115  0.06711992     0.89800
O461        O  0.30878186  0.84510281  0.04936932    -0.75200
C462        C  0.36667136  0.90990350  0.85695471     0.03300
C463        C  0.64037738  0.86926747  0.90641667     0.03300
C464        C  0.40678427  0.86236835  0.13322304     0.03300
C465        C  0.35767921  0.13732322  0.09255064     0.03300
C466        C  0.59409024  0.14396132  0.86468869     0.03300
C467        C  0.63414571  0.09536027  0.14077516     0.03300
O468        O  0.47025052  0.97838702  0.91487350    -0.72700
C469        C  0.53400557  0.08002584  0.93585826     0.88400
O470        O  0.56927650  0.94204783  0.99821669    -0.73800
O471        O  0.54254902  0.06180943  0.05588293    -0.75300
O472        O  0.41420154  0.03287580  0.02508152    -0.75100
O473        O  0.42350527  0.97162908  0.95504560    -0.73700
Zn474      Zn  0.51323560  0.99817359  0.94569271     1.55700
O475        O  0.45512524  0.07920366  0.03030040    -0.75100
Cd476      Cd  0.44605078  0.98934061  0.00472120     1.59700
Cd477      Cd  0.53164067  0.97172113  0.03049918     1.59600
O478        O  0.44163840  0.94609340  0.04223290    -0.75100
O479        O  0.49934176  0.00386252  0.99780685    -1.85600
Cd480      Cd  0.50511421  0.05711557  0.01252686     1.59900
O481        O  0.49968726  0.93383097  0.06064310    -0.75000
O482        O  0.52520964  0.08904342  0.96889770    -0.73700
C483        C  0.57450576  0.94165940  0.96320127     0.88800
C484        C  0.43697869  0.96892864  0.92247514     0.88500
O485        O  0.53055961  0.04698251  0.92381882    -0.72600
C486        C  0.42242613  0.06611685  0.03380439     0.89300
O487        O  0.55544977  0.96151910  0.94097821    -0.72700
C488        C  0.46476882  0.92773333  0.06169779     0.89400
C489        C  0.56224623  0.03888040  0.07423020     0.89800
O490        O  0.56155183  0.00404905  0.06811678    -0.75200
O491        O  0.97400397  0.81803799  0.26069663    -0.72700
C492        C  0.07163712  0.83005823  0.19245656     0.88400
O493        O  0.95921085  0.77979840  0.12672949    -0.73800
O494        O  0.07601797  0.71139602  0.17614576    -0.75300
O495        O  0.01114982  0.70063183  0.27801230    -0.75100
O496        O  0.94762983  0.76456929  0.27803542    -0.73700
Zn497      Zn  0.99230417  0.80658047  0.20921440     1.55700
O498        O  0.06569321  0.72838127  0.26631107    -0.75100
Cd499      Cd  0.97405913  0.72704465  0.24289469     1.59700
Cd500      Cd  0.98920958  0.73787035  0.15404332     1.59600
O501        O  0.93769791  0.68849865  0.21799678    -0.75100
O502        O  0.00250412  0.75498666  0.20476866    -1.85600
Cd503      Cd  0.05640078  0.74938008  0.21342687     1.59900
O504        O  0.95168847  0.69465721  0.15778436    -0.75000
O505        O  0.08471646  0.79835151  0.20108342    -0.73700
C506        C  0.94366571  0.80811192  0.14149946     0.88800
C507        C  0.95438367  0.79896274  0.28315874     0.88500
O508        O  0.03706811  0.83723033  0.19468064    -0.72600
C509        C  0.04510698  0.70712915  0.28587609     0.89300
O510        O  0.95205772  0.81957803  0.17378863    -0.72700
C511        C  0.93363596  0.67916613  0.18393761     0.89400
C512        C  0.06639638  0.70330819  0.14313693     0.89800
O513        O  0.03629294  0.71511610  0.12827043    -0.75200
O514        O  0.81475829  0.26541599  0.97228452    -0.72700
C515        C  0.82704584  0.19768450  0.06960997     0.88400
O516        O  0.77760432  0.13156065  0.95671407    -0.73800
O517        O  0.70855492  0.17988096  0.07345438    -0.75300
O518        O  0.69651327  0.28134625  0.00772725    -0.75100
O519        O  0.76139315  0.28201622  0.94503346    -0.73700
Zn520      Zn  0.80373313  0.21382659  0.99016266     1.55700
O521        O  0.72386769  0.27002879  0.06254026    -0.75100
Cd522      Cd  0.72387147  0.24657631  0.97106449     1.59700
Cd523      Cd  0.73523125  0.15809781  0.98673295     1.59600
O524        O  0.68583821  0.22131254  0.93445698    -0.75100
O525        O  0.75195947  0.20887870  0.99993302    -1.85600
Cd526      Cd  0.74603510  0.21765621  0.05369204     1.59900
O527        O  0.69201049  0.16136453  0.94914386    -0.75000
O528        O  0.79516293  0.20631744  0.08240574    -0.73700
C529        C  0.80592384  0.14658317  0.94128055     0.88800
C530        C  0.79566501  0.28760046  0.95240311     0.88500
O531        O  0.83437808  0.19954121  0.03506901    -0.72600
C532        C  0.70247480  0.28921983  0.04174791     0.89300
O533        O  0.81725578  0.17884934  0.94980549    -0.72700
C534        C  0.67657283  0.18725006  0.93072695     0.89400
C535        C  0.70070420  0.14682919  0.06398530     0.89800
O536        O  0.71255804  0.13207007  0.03386664    -0.75200
O537        O  0.26082628  0.03052483  0.68407941    -0.72700
C538        C  0.19253214  0.93325611  0.67230667     0.88400
O539        O  0.12723899  0.04662933  0.72228137    -0.73800
O540        O  0.17572869  0.92984845  0.79126715    -0.75300
O541        O  0.27845264  0.99374697  0.80141087    -0.75100
O542        O  0.27814867  0.05724340  0.73746206    -0.73700
Zn543      Zn  0.20927410  0.01255297  0.69538649     1.55700
O544        O  0.26589013  0.93935144  0.77403657    -0.75100
Cd545      Cd  0.24319553  0.03093918  0.77521843     1.59700
Cd546      Cd  0.15417081  0.01643947  0.76440172     1.59600
O547        O  0.21866145  0.06705886  0.81419344    -0.75100
O548        O  0.20478368  0.00280516  0.74721850    -1.85600
Cd549      Cd  0.21307876  0.94904530  0.75309663     1.59900
O550        O  0.15828992  0.05364150  0.80780267    -0.75000
O551        O  0.20074568  0.92049469  0.70428865    -0.73700
C552        C  0.14191131  0.06156462  0.69352793     0.88800
C553        C  0.28331047  0.05016208  0.70309999     0.88500
O554        O  0.19491852  0.96768218  0.66482391    -0.72600
C555        C  0.28585580  0.95974215  0.79508378     0.89300
O556        O  0.17401613  0.05270831  0.68185769    -0.72700
C557        C  0.18460028  0.07126528  0.82354442     0.89400
C558        C  0.14272975  0.93952891  0.79931317     0.89800
O559        O  0.12796812  0.96956962  0.78732558    -0.75200
C560        C  0.14128897  0.13687089  0.90618000     0.03300
C561        C  0.13464355  0.91044722  0.14121816     0.03300
C562        C  0.90697656  0.14630409  0.13319547     0.03300
C563        C  0.85966994  0.86894186  0.09414148     0.03300
C564        C  0.09158734  0.86259975  0.86576491     0.03300
C565        C  0.86617697  0.09727840  0.85806706     0.03300
O566        O  0.97337584  0.08711228  0.02908452    -0.72700
C567        C  0.07558709  0.06627733  0.96526685     0.88400
O568        O  0.93721592  0.00417850  0.92969832    -0.73800
O569        O  0.05673465  0.94645005  0.95631451    -0.75300
O570        O  0.02963156  0.97762037  0.08487596    -0.75100
O571        O  0.96755265  0.04704012  0.07598265    -0.73700
Zn572      Zn  0.99347006  0.05655927  0.98602057     1.55700
O573        O  0.07537413  0.97183104  0.04339864    -0.75100
Cd574      Cd  0.98549502  0.99758002  0.05330727     1.59700
Cd575      Cd  0.96664118  0.97194805  0.96772543     1.59600
O576        O  0.94250687  0.95983453  0.05805016    -0.75100
O577        O  0.99924203  0.00449251  0.99984221    -1.85600
Cd578      Cd  0.05249254  0.98961815  0.99371488     1.59900
O579        O  0.92873611  0.94224566  0.00009611    -0.75000
O580        O  0.08439811  0.03309461  0.97351021    -0.73700
C581        C  0.93719748  0.03911026  0.92419920     0.88800
C582        C  0.96437703  0.07951192  0.06247452     0.88500
O583        O  0.04258273  0.07852001  0.96908897    -0.72600
C584        C  0.06279785  0.96870613  0.07630703     0.89300
O585        O  0.95709178  0.06124196  0.94335586    -0.72700
C586        C  0.92347722  0.94078652  0.03511156     0.89400
C587        C  0.03359740  0.92797167  0.93697096     0.89800
O588        O  0.99866699  0.93395797  0.93796904    -0.75200
O589        O  0.18424265  0.24222039  0.97203811    -0.72700
C590        C  0.17278859  0.31137753  0.06900767     0.88400
O591        O  0.22296189  0.37608127  0.95635119    -0.73800
O592        O  0.29178912  0.32680207  0.07274995    -0.75300
O593        O  0.30255456  0.22577635  0.00831649    -0.75100
O594        O  0.23768685  0.22462789  0.94563410    -0.73700
Zn595      Zn  0.19575651  0.29399011  0.98965051     1.55700
O596        O  0.27440843  0.23728958  0.06263163    -0.75100
Cd597      Cd  0.27539353  0.26024720  0.97117098     1.59700
Cd598      Cd  0.26500891  0.34901739  0.98633971     1.59600
O599        O  0.31369479  0.28489553  0.93447891    -0.75100
O600        O  0.24757252  0.29846344  0.99950138    -1.85600
Cd601      Cd  0.25341425  0.28995615  0.05323933     1.59900
O602        O  0.30824581  0.34499227  0.94886540    -0.75000
O603        O  0.20465825  0.30271596  0.08184919    -0.73700
C604        C  0.19450995  0.36139916  0.94082330     0.88800
C605        C  0.20330841  0.21946198  0.95278390     0.88500
O606        O  0.16529791  0.30897400  0.03451701    -0.72600
C607        C  0.29606373  0.21800492  0.04226335     0.89300
O608        O  0.18281108  0.32920935  0.94921739    -0.72700
C609        C  0.32341761  0.31882021  0.93064944     0.89400
C610        C  0.29979125  0.35985763  0.06349147     0.89800
O611        O  0.28791003  0.37489309  0.03349961    -0.75200
O612        O  0.73790141  0.47653989  0.68422738    -0.72700
C613        C  0.80632760  0.57338443  0.67238606     0.88400
O614        O  0.87209872  0.46119020  0.72225185    -0.73800
O615        O  0.82224464  0.57734168  0.79100279    -0.75300
O616        O  0.72152987  0.51169966  0.80289589    -0.75100
O617        O  0.72045193  0.44974299  0.73753365    -0.73700
Zn618      Zn  0.78974683  0.49402208  0.69554191     1.55700
O619        O  0.73219517  0.56618018  0.77485091    -0.75100
Cd620      Cd  0.75621297  0.47512755  0.77528805     1.59700
Cd621      Cd  0.84496129  0.49102710  0.76437734     1.59600
O622        O  0.78147091  0.43859433  0.81341216    -0.75100
O623        O  0.79412227  0.50387779  0.74730673    -1.85600
Cd624      Cd  0.78495054  0.55748470  0.75306241     1.59900
O625        O  0.84152588  0.45367265  0.80773300    -0.75000
O626        O  0.79706345  0.58615943  0.70408759    -0.73700
C627        C  0.85734634  0.44549702  0.69394836     0.88800
C628        C  0.71517290  0.45715262  0.70323665     0.88500
O629        O  0.80464185  0.53887529  0.66507093    -0.72600
C630        C  0.71329792  0.54552595  0.79665351     0.89300
O631        O  0.82495884  0.45362440  0.68243635    -0.72700
C632        C  0.81555614  0.43518618  0.82303327     0.89400
C633        C  0.85541751  0.56819499  0.79900177     0.89800
O634        O  0.87057009  0.53831798  0.78711902    -0.75200
O635        O  0.96492003  0.16913736  0.80402040    -0.72700
C636        C  0.04706004  0.20699835  0.71480597     0.88400
O637        O  0.04343199  0.22645223  0.87152249    -0.73800
O638        O  0.06521770  0.31729073  0.77996230    -0.75300
O639        O  0.93673715  0.27854611  0.73284969    -0.75100
O640        O  0.91761792  0.20842882  0.79774771    -0.73700
Zn641      Zn  0.00993322  0.19951731  0.78930444     1.55700
O642        O  0.99125999  0.30617805  0.72084039    -0.75100
Cd643      Cd  0.94633041  0.25716706  0.78537652     1.59700
Cd644      Cd  0.01354766  0.26847822  0.84434614     1.59600
O645        O  0.92689642  0.29520662  0.82261679    -0.75100
O646        O  0.00017313  0.25123792  0.79370556    -1.85600
Cd647      Cd  0.02850071  0.27902509  0.75531222     1.59900
O648        O  0.96659443  0.29145444  0.87045015    -0.75000
O649        O  0.05408686  0.24136172  0.71975127    -0.73700
C650        C  0.05863527  0.19787318  0.85691664     0.88800
C651        C  0.93040834  0.17659681  0.80634314     0.88500
O652        O  0.02781387  0.18801305  0.73766760    -0.72600
C653        C  0.95713623  0.30003659  0.71339210     0.89300
O654        O  0.05013792  0.18627546  0.82469508    -0.72700
C655        C  0.93646132  0.30327046  0.85562752     0.89400
C656        C  0.06914820  0.32685254  0.81396435     0.89800
O657        O  0.05105781  0.31155998  0.84019656    -0.75200
C658        C  0.85859879  0.36934237  0.90581704     0.03300
C659        C  0.13411562  0.40981343  0.85722796     0.03300
C660        C  0.90649980  0.64537602  0.86539285     0.03300
C661        C  0.09303006  0.36236686  0.13331386     0.03300
C662        C  0.86697346  0.59726468  0.14060758     0.03300
C663        C  0.14244778  0.63683783  0.09093157     0.03300
O664        O  0.04252066  0.57817594  0.02932907    -0.72700
C665        C  0.96420122  0.57852992  0.93609857     0.88400
O666        O  0.93810590  0.50334106  0.06983898    -0.73800
O667        O  0.94258904  0.45901920  0.94156388    -0.75300
O668        O  0.07575800  0.47156463  0.95531598    -0.75100
O669        O  0.08458159  0.53293747  0.02506072    -0.73700
Zn670      Zn  0.99344555  0.55589406  0.01271563     1.55700
O671        O  0.02958290  0.47667826  0.91417789    -0.75100
Cd672      Cd  0.05298391  0.48913507  0.00513710     1.59700
Cd673      Cd  0.96743367  0.47120009  0.03168835     1.59600
O674        O  0.05769161  0.44587339  0.04254875    -0.75100
O675        O  0.99961424  0.50379899  0.99919892    -1.85600
Cd676      Cd  0.98561869  0.49670836  0.94581395     1.59900
O677        O  0.99976417  0.43322318  0.06117087    -0.75000
O678        O  0.96754578  0.54602256  0.92273556    -0.73700
C679        C  0.93763050  0.53832274  0.07496092     0.88800
C680        C  0.07561166  0.56612643  0.03309330     0.88500
O681        O  0.97310352  0.58622835  0.96949878    -0.72600
C682        C  0.06291381  0.46816199  0.92252168     0.89300
O683        O  0.95711730  0.56052021  0.05545735    -0.72700
C684        C  0.03470340  0.42727488  0.06196912     0.89400
C685        C  0.92369877  0.44006625  0.96468231     0.89800
O686        O  0.92926681  0.44150524  0.99965258    -0.75200
O687        O  0.53543454  0.83866152  0.30401035    -0.72700
C688        C  0.45362842  0.79985955  0.21511765     0.88400
O689        O  0.45697910  0.78127240  0.37190564    -0.73800
O690        O  0.43605661  0.68959027  0.28013179    -0.75300
O691        O  0.56456960  0.72887386  0.23331268    -0.75100
O692        O  0.58295450  0.79960490  0.29794436    -0.73700
Zn693      Zn  0.49052145  0.80798014  0.28966056     1.55700
O694        O  0.51021186  0.70100374  0.22124689    -0.75100
Cd695      Cd  0.55450536  0.75062483  0.28580662     1.59700
Cd696      Cd  0.48672969  0.73916091  0.34473865     1.59600
O697        O  0.57366207  0.71288207  0.32347444    -0.75100
O698        O  0.50056639  0.75627214  0.29411556    -1.85600
Cd699      Cd  0.47278397  0.72797626  0.25566575     1.59900
O700        O  0.53344729  0.71589579  0.37093470    -0.75000
O701        O  0.44705580  0.76539704  0.21998280    -0.73700
C702        C  0.44178363  0.80985183  0.35726857     0.88800
C703        C  0.56999447  0.83142432  0.30630745     0.88500
O704        O  0.47253595  0.81909547  0.23804813    -0.72600
C705        C  0.54429375  0.70729343  0.21377677     0.89300
O706        O  0.45028773  0.82139779  0.32502747    -0.72700
C707        C  0.56373603  0.70434960  0.35625753     0.89400
C708        C  0.43146108  0.68048008  0.31417420     0.89800
O709        O  0.44900696  0.69619229  0.34054077    -0.75200
O710        O  0.52741606  0.18838166  0.76059136    -0.72700
C711        C  0.42974841  0.17722330  0.69253354     0.88400
O712        O  0.54312897  0.22634970  0.62689629    -0.73800
O713        O  0.42644816  0.29550131  0.67526239    -0.75300
O714        O  0.49127914  0.30549112  0.77826510    -0.75100
O715        O  0.55483403  0.24142430  0.77764258    -0.73700
Zn716      Zn  0.50927670  0.19989978  0.70913934     1.55700
O717        O  0.43636167  0.27900081  0.76550530    -0.75100
Cd718      Cd  0.52825350  0.27925887  0.74283550     1.59700
Cd719      Cd  0.51306113  0.26847750  0.65375170     1.59600
O720        O  0.56408224  0.31825827  0.71794276    -0.75100
O721        O  0.49967416  0.25160584  0.70453226    -1.85600
Cd722      Cd  0.44585922  0.25777111  0.71289047     1.59900
O723        O  0.55017336  0.31195823  0.65768385    -0.75000
O724        O  0.41706271  0.20911504  0.70093906    -0.73700
C725        C  0.55801462  0.19766237  0.64165090     0.88800
C726        C  0.54747961  0.20716074  0.78290159     0.88500
O727        O  0.46422602  0.16964989  0.69477803    -0.72600
C728        C  0.45707690  0.29964968  0.78554555     0.89300
O729        O  0.54927029  0.18621869  0.67384242    -0.72700
C730        C  0.56793923  0.32770339  0.68388619     0.89400
C731        C  0.43591406  0.30299026  0.64208414     0.89800
O732        O  0.46597378  0.29088310  0.62738172    -0.75200
O733        O  0.69492945  0.96644037  0.83386132    -0.72700
C734        C  0.78382254  0.04903136  0.79656206     0.88400
O735        O  0.62739663  0.04436257  0.77634556    -0.73800
O736        O  0.71859356  0.06688461  0.68604253    -0.75300
O737        O  0.76656716  0.93866013  0.72423472    -0.75100
O738        O  0.70179217  0.91908331  0.79477494    -0.73700
Zn739      Zn  0.70972850  0.01123308  0.80350755     1.55700
O740        O  0.77858058  0.99345192  0.69728075    -0.75100
Cd741      Cd  0.71390375  0.94761498  0.74577572     1.59700
Cd742      Cd  0.65455277  0.01434975  0.73433771     1.59600
O743        O  0.67652321  0.92773599  0.70781683    -0.75100
O744        O  0.70531515  0.00133840  0.75170347    -1.85600
Cd745      Cd  0.74353756  0.03022271  0.72424489     1.59900
O746        O  0.62861033  0.96725978  0.71122569    -0.75000
O747        O  0.77866995  0.05621594  0.76220809    -0.73700
C748        C  0.64212741  0.05988922  0.80475875     0.88800
C749        C  0.69286586  0.93197141  0.82652255     0.88500
O750        O  0.76132061  0.02922888  0.81539796    -0.72600
C751        C  0.78614727  0.95938745  0.70314543     0.89300
O752        O  0.67435324  0.05144858  0.81646498    -0.72700
C753        C  0.64348048  0.93714019  0.69957394     0.89400
C754        C  0.68456150  0.07055502  0.67633455     0.89800
O755        O  0.65844678  0.05200447  0.69130628    -0.75200
C756        C  0.36580299  0.09755845  0.64155052     0.03300
C757        C  0.59218398  0.85973784  0.63333585     0.03300
C758        C  0.64130468  0.13643374  0.59386249     0.03300
C759        C  0.35845869  0.86988702  0.40664574     0.03300
C760        C  0.63360225  0.91116643  0.35798372     0.03300
C761        C  0.40854300  0.14416433  0.36665993     0.03300
O762        O  0.52549164  0.91889624  0.52954819    -0.72700
C763        C  0.42334020  0.94034649  0.46645237     0.88400
O764        O  0.56157308  0.00255482  0.43045879    -0.73800
O765        O  0.44237298  0.06017711  0.45786079    -0.75300
O766        O  0.47046952  0.02918770  0.58606049    -0.75100
O767        O  0.53098518  0.95856554  0.57683489    -0.73700
Zn768      Zn  0.50567073  0.94978325  0.48659677     1.55700
O769        O  0.42434939  0.03462915  0.54490088    -0.75100
Cd770      Cd  0.51408250  0.00839794  0.55434351     1.59700
Cd771      Cd  0.53242772  0.03434768  0.46889369     1.59600
O772        O  0.55795292  0.04525565  0.55899858    -0.75100
O773        O  0.49996873  0.00171416  0.50092435    -1.85600
Cd774      Cd  0.44672027  0.01677946  0.49512518     1.59900
O775        O  0.57080229  0.06348300  0.50104729    -0.75000
O776        O  0.41451684  0.97340411  0.47515361    -0.73700
C777        C  0.56181577  0.96768369  0.42471749     0.88800
C778        C  0.53415311  0.92620955  0.56309646     0.88500
O779        O  0.45642380  0.92816338  0.46974182    -0.72600
C780        C  0.43724365  0.03807854  0.57765121     0.89300
O781        O  0.54210263  0.94528585  0.44378288    -0.72700
C782        C  0.57673678  0.06443355  0.53595639     0.89400
C783        C  0.46555714  0.07879511  0.43869720     0.89800
O784        O  0.50046272  0.07273103  0.43969398    -0.75200
C785        C  0.43427752  0.12655889  0.39297084    -0.07400
C786        C  0.45111345  0.10680179  0.41423205    -0.09000
C787        C  0.58593635  0.95265175  0.39656800    -0.07400
C788        C  0.60717491  0.93636762  0.37626401    -0.09000
C789        C  0.39558802  0.91632412  0.45067375    -0.07400
C790        C  0.37588240  0.89552630  0.43317473    -0.09000
C791        C  0.62419599  0.11032970  0.56758215    -0.07400
C792        C  0.60467691  0.08896748  0.55056219    -0.09000
C793        C  0.54969166  0.89765578  0.58614515    -0.07400
C794        C  0.56676369  0.87783662  0.60711874    -0.09000
C795        C  0.39228136  0.07161464  0.62461047    -0.07400
C796        C  0.41357850  0.05417088  0.60545307    -0.09000
C797        C  0.67432173  0.09623025  0.64730164    -0.07400
C798        C  0.66088043  0.11554188  0.62322186    -0.09000
C799        C  0.62306539  0.91226519  0.67597093    -0.07400
C800        C  0.60947749  0.88884623  0.65614342    -0.09000
C801        C  0.38627920  0.12632384  0.66219025    -0.07400
C802        C  0.40491695  0.14948805  0.67787224    -0.09000
C803        C  0.58636485  0.17740397  0.62240561    -0.07400
C804        C  0.61128184  0.15879263  0.60993388    -0.09000
C805        C  0.59458766  0.85946942  0.32098480    -0.07400
C806        C  0.61307271  0.88273919  0.33678289    -0.09000
C807        C  0.41333730  0.82976417  0.37677374    -0.07400
C808        C  0.38834846  0.84788003  0.38984090    -0.09000
C809        C  0.12358177  0.61127419  0.06532843    -0.07400
C810        C  0.10330111  0.59047428  0.04848728    -0.09000
C811        C  0.89267168  0.57099204  0.12281260    -0.07400
C812        C  0.91355599  0.55382360  0.10288309    -0.09000
C813        C  0.04944114  0.39936187  0.08639228    -0.07400
C814        C  0.06668322  0.37967639  0.10740158    -0.09000
C815        C  0.93168385  0.62700042  0.89177274    -0.07400
C816        C  0.94847874  0.60690524  0.91279104    -0.09000
C817        C  0.08670259  0.45260949  0.89448338    -0.07400
C818        C  0.10779604  0.43557688  0.87472056    -0.09000
C819        C  0.87618980  0.39472471  0.93245817    -0.07400
C820        C  0.89584200  0.41552226  0.94999386    -0.09000
C821        C  0.09448403  0.35618525  0.82403411    -0.07400
C822        C  0.11344415  0.38048522  0.83750613    -0.09000
C823        C  0.88812435  0.34655599  0.88937945    -0.07400
C824        C  0.91169782  0.32680809  0.87606807    -0.09000
C825        C  0.82599474  0.40994735  0.85238549    -0.07400
C826        C  0.83937416  0.39079713  0.87663053    -0.09000
C827        C  0.87566915  0.59306299  0.82263517    -0.07400
C828        C  0.88917628  0.61640114  0.84255069    -0.09000
C829        C  0.14495881  0.32633597  0.09368482    -0.07400
C830        C  0.12173479  0.34194216  0.11238521    -0.09000
C831        C  0.15673986  0.39361461  0.88700719    -0.07400
C832        C  0.17489249  0.38080711  0.91211608    -0.09000
C833        C  0.88699195  0.12570867  0.83712015    -0.07400
C834        C  0.90566616  0.14880765  0.82127838    -0.09000
C835        C  0.89229703  0.07162808  0.87614964    -0.07400
C836        C  0.91320537  0.05463555  0.89621613    -0.09000
C837        C  0.81576191  0.06412038  0.81510893    -0.07400
C838        C  0.84053704  0.07768818  0.83320489    -0.09000
C839        C  0.04821104  0.90016599  0.91241830    -0.07400
C840        C  0.06548865  0.88048745  0.89147824    -0.09000
C841        C  0.89592937  0.91600312  0.05002905    -0.07400
C842        C  0.87666817  0.89482041  0.06755851    -0.09000
C843        C  0.93190000  0.12795518  0.10665236    -0.07400
C844        C  0.94868732  0.10794666  0.08561875    -0.09000
C845        C  0.08672945  0.95302986  0.10419608    -0.07400
C846        C  0.10805026  0.93599601  0.12375541    -0.09000
C847        C  0.11179852  0.15945167  0.88943665    -0.07400
C848        C  0.08701365  0.17790893  0.87645604    -0.09000
C849        C  0.12330091  0.11115221  0.93228561    -0.07400
C850        C  0.10330626  0.09038396  0.94951148    -0.09000
C851        C  0.16690072  0.16219075  0.92518943    -0.07400
C852        C  0.18501696  0.18715823  0.93829897    -0.09000
C853        C  0.31527770  0.06513713  0.68471095    -0.07400
C854        C  0.34005808  0.07843784  0.66652662    -0.09000
C855        C  0.16107422  0.11566216  0.87719914    -0.07400
C856        C  0.17453077  0.09648952  0.85302687    -0.09000
C857        C  0.10864941  0.89179880  0.84305011    -0.07400
C858        C  0.12221583  0.91505791  0.82310211    -0.09000
C859        C  0.81391233  0.31964512  0.93743169    -0.07400
C860        C  0.83243183  0.34426184  0.92428788    -0.09000
C861        C  0.87832168  0.16740460  0.11288061    -0.07400
C862        C  0.85503088  0.18315636  0.09437619    -0.09000
C863        C  0.84397548  0.11452541  0.88755211    -0.07400
C864        C  0.82581222  0.12747676  0.91256752    -0.09000
C865        C  0.09608998  0.85806470  0.17759388    -0.07400
C866        C  0.11436278  0.88148851  0.16183468    -0.09000
C867        C  0.90800856  0.65004165  0.17372640    -0.07400
C868        C  0.88846241  0.62610607  0.16033191    -0.09000
C869        C  0.91493557  0.82788036  0.12218515    -0.07400
C870        C  0.88974462  0.84626833  0.10983002    -0.09000
C871        C  0.11382055  0.65963181  0.10869386    -0.07400
C872        C  0.09089226  0.67961253  0.12267276    -0.09000
C873        C  0.67720574  0.12627480  0.08873071    -0.07400
C874        C  0.65724826  0.11261719  0.11196011    -0.09000
C875        C  0.58684181  0.05350918  0.10210190    -0.07400
C876        C  0.60798804  0.07017772  0.12215722    -0.09000
C877        C  0.62280708  0.08869992  0.82428869    -0.07400
C878        C  0.61018967  0.11396027  0.84231923    -0.09000
C879        C  0.62343602  0.16326642  0.88584116    -0.07400
C880        C  0.64751274  0.17674021  0.90515699    -0.09000
C881        C  0.55001839  0.10747681  0.91166028    -0.07400
C882        C  0.56758191  0.12686391  0.89061262    -0.09000
C883        C  0.57564529  0.16988976  0.83931802    -0.07400
C884        C  0.56257597  0.18855866  0.81474597    -0.09000
C885        C  0.39441384  0.08955410  0.04978035    -0.07400
C886        C  0.37494478  0.11066404  0.06706032    -0.09000
C887        C  0.33270140  0.16250278  0.07270894    -0.07400
C888        C  0.31468887  0.18677378  0.05834741    -0.09000
C889        C  0.43306771  0.88016192  0.10749479    -0.07400
C890        C  0.45020887  0.89992465  0.08642776    -0.09000
C891        C  0.43885805  0.81814401  0.18298834    -0.07400
C892        C  0.42568121  0.83656518  0.15832016    -0.09000
C893        C  0.66155323  0.88930889  0.87762700    -0.07400
C894        C  0.67771872  0.90744845  0.85434561    -0.09000
C895        C  0.60201696  0.91723180  0.94772574    -0.07400
C896        C  0.62186396  0.89589430  0.93111393    -0.09000
C897        C  0.39315389  0.93556136  0.87434016    -0.07400
C898        C  0.41403296  0.95298045  0.89399309    -0.09000
C899        C  0.34184108  0.92937532  0.83127162    -0.07400
C900        C  0.31743222  0.94362292  0.81326181    -0.09000
C901        C  0.18583373  0.68712546  0.05854054    -0.07400
C902        C  0.16767968  0.66206449  0.07137103    -0.09000
C903        C  0.35370161  0.82901952  0.09261381    -0.07400
C904        C  0.37772116  0.84269873  0.11191023    -0.09000
C905        C  0.14382154  0.82693742  0.90542838    -0.07400
C906        C  0.12031991  0.84233627  0.88686626    -0.09000
C907        C  0.32366840  0.88096101  0.91015255    -0.07400
C908        C  0.34363178  0.89401852  0.88659604    -0.09000
C909        C  0.15704019  0.89388839  0.11146811    -0.07400
C910        C  0.17534191  0.88101156  0.08650944    -0.09000
C911        C  0.18469172  0.94310899  0.18475324    -0.07400
C912        C  0.16000056  0.92991485  0.16634580    -0.09000
C913        C  0.32201654  0.09881924  0.14548662    -0.07400
C914        C  0.33719406  0.11724018  0.12177841    -0.09000
C915        C  0.32500731  0.91037447  0.35373942    -0.07400
C916        C  0.33856266  0.89115702  0.37781257    -0.09000
C917        C  0.39022628  0.89182506  0.15604415    -0.07400
C918        C  0.37746726  0.91661834  0.17465338    -0.09000
C919        C  0.37812552  0.09139156  0.32434867    -0.07400
C920        C  0.39166431  0.11469846  0.34422144    -0.09000
C921        C  0.57203698  0.83478998  0.65837494    -0.07400
C922        C  0.55762925  0.81671987  0.68262941    -0.09000
C923        C  0.40569770  0.85549315  0.82441241    -0.07400
C924        C  0.38704016  0.88021858  0.83747824    -0.09000
C925        C  0.58814315  0.82597179  0.87618548    -0.07400
C926        C  0.61145322  0.84610605  0.88943189    -0.09000
C927        C  0.38779801  0.34597736  0.60757846    -0.07400
C928        C  0.41117494  0.32626045  0.62129943    -0.09000
C929        C  0.37701428  0.39465389  0.56471922    -0.07400
C930        C  0.39685177  0.41568295  0.54770582    -0.09000
C931        C  0.55104722  0.39885955  0.41296757    -0.07400
C932        C  0.56805440  0.37905398  0.39194640    -0.09000
C933        C  0.38688040  0.62687684  0.33740486    -0.07400
C934        C  0.40599308  0.65117612  0.32410971    -0.09000
C935        C  0.41362479  0.55404075  0.39355501    -0.07400
C936        C  0.39258189  0.57146975  0.37410574    -0.09000
C937        C  0.43369210  0.62664116  0.60649291    -0.07400
C938        C  0.45048299  0.60702663  0.58510546    -0.09000
C939        C  0.42701824  0.66845222  0.65883942    -0.07400
C940        C  0.43969674  0.68632871  0.68412409    -0.09000
C941        C  0.59287769  0.35736643  0.67371996    -0.07400
C942        C  0.61178217  0.38173756  0.66026821    -0.09000
C943        C  0.60692358  0.43684336  0.62273896    -0.07400
C944        C  0.58601187  0.45380264  0.60266116    -0.09000
C945        C  0.68282408  0.44279122  0.68487886    -0.07400
C946        C  0.65798766  0.42983810  0.66644385    -0.09000
C947        C  0.61168075  0.66021956  0.38935623    -0.07400
C948        C  0.58821456  0.68039090  0.37651221    -0.09000
C949        C  0.62382254  0.61134065  0.43152087    -0.07400
C950        C  0.60419350  0.59023375  0.44867720    -0.09000
C951        C  0.15920043  0.42902221  0.83160301    -0.07400
C952        C  0.18347320  0.44280740  0.81306264    -0.09000
C953        C  0.32264277  0.40840433  0.64220450    -0.07400
C954        C  0.33837207  0.38984892  0.61902432    -0.09000
C955        C  0.39086828  0.61394674  0.65465358    -0.07400
C956        C  0.37793454  0.58893532  0.67278820    -0.09000
C957        C  0.34284768  0.39298093  0.11248739    -0.07400
C958        C  0.32324541  0.38007916  0.08853360    -0.09000
C959        C  0.41196376  0.45299165  0.10527710    -0.07400
C960        C  0.39141034  0.43532231  0.12502393    -0.09000
C961        C  0.61269176  0.62428821  0.83850948    -0.07400
C962        C  0.59405437  0.64750502  0.82286398    -0.09000
C963        C  0.60687419  0.57089502  0.87818990    -0.07400
C964        C  0.58534444  0.55441259  0.89800147    -0.09000
C965        C  0.65782620  0.57520983  0.83418999    -0.07400
C966        C  0.68200245  0.56109542  0.81577467    -0.09000
C967        C  0.38625845  0.65928834  0.88956226    -0.07400
C968        C  0.41143279  0.67767516  0.87724542    -0.09000
C969        C  0.33734701  0.61545016  0.87578299    -0.07400
C970        C  0.32469858  0.59610822  0.85126300    -0.09000
C971        C  0.39361555  0.58987855  0.94911901    -0.07400
C972        C  0.37388175  0.61063306  0.93163202    -0.09000
C973        C  0.31280244  0.68633248  0.93832915    -0.07400
C974        C  0.33055087  0.66162409  0.92430972    -0.09000
C975        C  0.37716500  0.34209378  0.88619095    -0.07400
C976        C  0.35279445  0.32882616  0.90526101    -0.09000
C977        C  0.39005659  0.39046616  0.84169488    -0.07400
C978        C  0.37684830  0.41350578  0.82129752    -0.09000
C979        C  0.43175818  0.38030248  0.89153566    -0.07400
C980        C  0.44834931  0.40031414  0.91273476    -0.09000
C981        C  0.42661802  0.33606153  0.84120378    -0.07400
C982        C  0.44107072  0.31796315  0.81704035    -0.09000
C983        C  0.54898653  0.60859294  0.08538586    -0.07400
C984        C  0.56675276  0.62796216  0.10628852    -0.09000
C985        C  0.57435133  0.67038215  0.15803702    -0.07400
C986        C  0.56050416  0.68859398  0.18252684    -0.09000
C987        C  0.62159148  0.39554379  0.06632817    -0.07400
C988        C  0.60147090  0.41652525  0.04957988    -0.09000
C989        C  0.68356988  0.32052500  0.05737865    -0.07400
C990        C  0.66540359  0.34482816  0.07148742    -0.09000
C991        C  0.04971334  0.60734638  0.41343932    -0.07400
C992        C  0.06729516  0.62702625  0.39274746    -0.09000
C993        C  0.07449468  0.67071765  0.34215736    -0.07400
C994        C  0.06084993  0.68893250  0.31759216    -0.09000
C995        C  0.89002947  0.39205035  0.65610921    -0.07400
C996        C  0.87694063  0.41697015  0.67426849    -0.09000
C997        C  0.93231781  0.38011665  0.60726635    -0.07400
C998        C  0.94947147  0.39974590  0.58617235    -0.09000
C999        C  0.92624966  0.33716361  0.65840813    -0.07400
C1000       C  0.94083017  0.31892459  0.68239603    -0.09000
C1001       C  0.89104511  0.43532786  0.37587098    -0.07400
C1002       C  0.91211617  0.45252908  0.39545918    -0.09000
C1003       C  0.83709580  0.61685123  0.62147711    -0.07400
C1004       C  0.82125733  0.59817246  0.64460015    -0.09000
C1005       C  0.89620584  0.59043176  0.55044584    -0.07400
C1006       C  0.87637078  0.61131998  0.56759256    -0.09000
C1007       C  0.12392126  0.39587815  0.43295281    -0.07400
C1008       C  0.10396455  0.41670127  0.45010164    -0.09000
C1009       C  0.08613187  0.55397107  0.60225131    -0.07400
C1010       C  0.10729347  0.57092786  0.62207679    -0.09000
C1011       C  0.18370077  0.56283183  0.68324663    -0.07400
C1012       C  0.15869540  0.57627438  0.66543615    -0.09000
C1013       C  0.92657380  0.67031595  0.84026743    -0.07400
C1014       C  0.93989304  0.68854970  0.81550411    -0.09000
C1015       C  0.07231023  0.83722071  0.84052452    -0.07400
C1016       C  0.05865219  0.81889630  0.81604969    -0.09000
C1017       C  0.09474220  0.64845066  0.67681797    -0.07400
C1018       C  0.11305785  0.62495845  0.66119301    -0.09000
C1019       C  0.91247871  0.67830239  0.62291313    -0.07400
C1020       C  0.88746010  0.66001554  0.61007910    -0.09000
C1021       C  0.68483669  0.18710938  0.56227030    -0.07400
C1022       C  0.66689054  0.16196600  0.57521217    -0.09000
C1023       C  0.64477261  0.32417793  0.40514042    -0.07400
C1024       C  0.62186731  0.34002420  0.38622780    -0.09000
C1025       C  0.85292268  0.32896856  0.59389306    -0.07400
C1026       C  0.87729497  0.34251702  0.61279109    -0.09000
C1027       C  0.65561724  0.39435702  0.61118026    -0.07400
C1028       C  0.67404658  0.38122252  0.58646381    -0.09000
C1029       C  0.82222240  0.37950571  0.41054617    -0.07400
C1030       C  0.84194368  0.39293245  0.38697066    -0.09000
C1031       C  0.16263346  0.88993778  0.62092185    -0.07400
C1032       C  0.17804913  0.90855312  0.64431657    -0.09000
C1033       C  0.11264558  0.84675554  0.60860987    -0.07400
C1034       C  0.08910871  0.82687247  0.62185132    -0.09000
C1035       C  0.10483232  0.91701167  0.54941317    -0.07400
C1036       C  0.12443783  0.89586994  0.56649654    -0.09000
C1037       C  0.12262143  0.09006790  0.67346041    -0.07400
C1038       C  0.10983548  0.11493721  0.65497192    -0.09000
C1039       C  0.04963371  0.10711017  0.58571124    -0.07400
C1040       C  0.06685636  0.12694718  0.60665597    -0.09000
C1041       C  0.06161593  0.18859248  0.68262964    -0.07400
C1042       C  0.07456578  0.17025478  0.65777878    -0.09000
C1043       C  0.10608206  0.07091001  0.37450851    -0.07400
C1044       C  0.08490486  0.05350777  0.39384593    -0.09000
C1045       C  0.18236616  0.06326548  0.31404588    -0.07400
C1046       C  0.15772436  0.07736394  0.33184684    -0.09000
C1047       C  0.88727190  0.88066519  0.65982177    -0.07400
C1048       C  0.90639866  0.85644239  0.67325428    -0.09000
C1049       C  0.89180630  0.93553743  0.62187245    -0.07400
C1050       C  0.91268231  0.95277385  0.60206483    -0.09000
C1051       C  0.81745112  0.94354396  0.68435626    -0.07400
C1052       C  0.84155596  0.92931455  0.66599176    -0.09000
C1053       C  0.87724417  0.11086776  0.43207457    -0.07400
C1054       C  0.89697247  0.08929698  0.44852066    -0.09000
C1055       C  0.81535808  0.18590991  0.44264689    -0.07400
C1056       C  0.83369664  0.16194827  0.42816984    -0.09000
C1057       C  0.95026470  0.89848567  0.41184313    -0.07400
C1058       C  0.93303229  0.87876844  0.39084577    -0.09000
C1059       C  0.92550667  0.83572478  0.33954245    -0.07400
C1060       C  0.93899719  0.81733227  0.31499872    -0.09000
C1061       C  0.68580498  0.68684680  0.43701247    -0.07400
C1062       C  0.66746952  0.66205870  0.42393498    -0.09000
C1063       C  0.83333865  0.66255808  0.57269843    -0.07400
C1064       C  0.81529601  0.68669142  0.55812138    -0.09000
C1065       C  0.64376725  0.82348837  0.59351275    -0.07400
C1066       C  0.62067432  0.83893021  0.61250399    -0.09000
C1067       C  0.85282352  0.82915335  0.40493274    -0.07400
C1068       C  0.87718447  0.84233729  0.38574137    -0.09000
C1069       C  0.82248220  0.87976445  0.58801426    -0.07400
C1070       C  0.84265264  0.89311152  0.61123952    -0.09000
C1071       C  0.67399634  0.88049377  0.41219253    -0.07400
C1072       C  0.65581138  0.89375948  0.38735793    -0.09000
C1073       C  0.68453365  0.94403020  0.31547032    -0.07400
C1074       C  0.65933292  0.93099439  0.33338155    -0.09000
C1075       C  0.65900011  0.07514070  0.16586632    -0.07400
C1076       C  0.68331544  0.06102600  0.18411135    -0.09000
C1077       C  0.83801548  0.11758058  0.37837023    -0.07400
C1078       C  0.82242125  0.09915557  0.35491031    -0.09000
C1079       C  0.84072330  0.89006972  0.12378521    -0.07400
C1080       C  0.82756778  0.90943694  0.14799685    -0.09000
C1081       C  0.89087342  0.89161412  0.34228760    -0.07400
C1082       C  0.87846146  0.91708410  0.32439317    -0.09000
C1083       C  0.87647503  0.09403446  0.17623865    -0.07400
C1084       C  0.88978849  0.11735401  0.15616983    -0.09000
C1085       C  0.06119123  0.31938313  0.18428987    -0.07400
C1086       C  0.07418253  0.33734477  0.15920031    -0.09000
C1087       C  0.94180767  0.18898048  0.18253873    -0.07400
C1088       C  0.92751571  0.17102607  0.15813083    -0.09000
C1089       C  0.09354808  0.15114083  0.32514584    -0.07400
C1090       C  0.11236219  0.12645383  0.33810264    -0.09000
C1091       C  0.90438614  0.35840998  0.32145349    -0.07400
C1092       C  0.88554528  0.38140601  0.33711433    -0.09000
C1093       C  0.88775806  0.16099690  0.39079364    -0.07400
C1094       C  0.91101884  0.18112567  0.37745763    -0.09000
C1095       C  0.11151812  0.34794218  0.39002672    -0.07400
C1096       C  0.08648466  0.32970184  0.37724109    -0.09000
C1097       C  0.81631618  0.56539528  0.18433496    -0.07400
C1098       C  0.84134138  0.57852895  0.16621069    -0.09000
C1099       C  0.81607430  0.44435043  0.31418093    -0.07400
C1100       C  0.84000154  0.42995738  0.33264341    -0.09000
C1101       C  0.67724199  0.40925025  0.14316502    -0.07400
C1102       C  0.66136245  0.39062873  0.12002750    -0.09000
C1103       C  0.66032406  0.61611894  0.37570811    -0.07400
C1104       C  0.67352563  0.59698565  0.35138529    -0.09000
C1105       C  0.62187033  0.58956340  0.17310053    -0.07400
C1106       C  0.60912216  0.61465094  0.15487630    -0.09000
C1107       C  0.62374222  0.41379171  0.32289653    -0.07400
C1108       C  0.61055014  0.39027646  0.34286899    -0.09000
C1109       C  0.31429910  0.31953683  0.55807880    -0.07400
C1110       C  0.33308966  0.34400333  0.57106690    -0.09000
C1111       C  0.18549504  0.32010321  0.43799035    -0.07400
C1112       C  0.16729079  0.34488208  0.42468840    -0.09000
C1113       C  0.37958175  0.16473779  0.38701516    -0.07400
C1114       C  0.35583903  0.18035470  0.40500396    -0.09000
C1115       C  0.12235049  0.16424616  0.61115655    -0.07400
C1116       C  0.14649269  0.17787011  0.59199872    -0.09000
C1117       C  0.34385611  0.11421348  0.61145141    -0.07400
C1118       C  0.32568959  0.12702334  0.58631017    -0.09000
C1119       C  0.15566125  0.11236758  0.38730707    -0.07400
C1120       C  0.17584756  0.12540708  0.41070242    -0.09000
C1121       C  0.44072394  0.18720543  0.31599437    -0.07400
C1122       C  0.42793082  0.16917250  0.34114390    -0.09000
C1123       C  0.55895862  0.31810380  0.31610556    -0.07400
C1124       C  0.57320288  0.33623228  0.34041909    -0.09000
C1125       C  0.59483899  0.14727417  0.17716474    -0.07400
C1126       C  0.61341821  0.12394549  0.16158221    -0.09000
C1127       C  0.40575574  0.35520825  0.17467897    -0.07400
C1128       C  0.38664197  0.37959008  0.16155551    -0.09000
C1129       C  0.58860953  0.32646868  0.12275043    -0.07400
C1130       C  0.61168153  0.34665434  0.10917768    -0.09000
C1131       C  0.41272951  0.17775527  0.12178672    -0.07400
C1132       C  0.38760218  0.15964536  0.10892716    -0.09000
C1133       C  0.31638324  0.56424290  0.31366076    -0.07400
C1134       C  0.34086175  0.57836480  0.33167312    -0.09000
C1135       C  0.34041898  0.42766560  0.16824206    -0.07400
C1136       C  0.31573163  0.44114410  0.18643192    -0.09000
C1137       C  0.17860655  0.59715188  0.14264170    -0.07400
C1138       C  0.16316020  0.61566419  0.11919381    -0.09000
C1139       C  0.17348889  0.41103189  0.35276984    -0.07400
C1140       C  0.16050425  0.39174308  0.37710699    -0.09000
C1141       C  0.10951185  0.61539018  0.34361351    -0.07400
C1142       C  0.12248800  0.59230123  0.32313233    -0.09000
C1143       C  0.10988727  0.39222951  0.15526585    -0.07400
C1144       C  0.12264032  0.41727510  0.17348908    -0.09000
C1145       C  0.81499893  0.81936986  0.06218796    -0.07400
C1146       C  0.83347374  0.84386115  0.07565729    -0.09000
C1147       C  0.68371659  0.82061992  0.94133088    -0.07400
C1148       C  0.66530503  0.84467591  0.92708141    -0.09000
C1149       C  0.64713555  0.67748380  0.09275651    -0.07400
C1150       C  0.62269136  0.66421994  0.11177247    -0.09000
C1151       C  0.85485226  0.68245465  0.90430106    -0.07400
C1152       C  0.87796127  0.66641363  0.88586738    -0.09000
C1153       C  0.65671396  0.61292313  0.88788634    -0.07400
C1154       C  0.67703596  0.62666547  0.91074305    -0.09000
C1155       C  0.82639089  0.62706879  0.08595950    -0.07400
C1156       C  0.84461298  0.61408170  0.11094420    -0.09000
C1157       C  0.33301411  0.84411588  0.42517778    -0.07400
C1158       C  0.31497067  0.81903955  0.43811729    -0.09000
C1159       C  0.16733509  0.84448649  0.57220802    -0.07400
C1160       C  0.18559498  0.82016414  0.55826145    -0.09000
C1161       C  0.14739664  0.67683410  0.40705568    -0.07400
C1162       C  0.12294091  0.66372264  0.38800088    -0.09000
C1163       C  0.37914580  0.66480279  0.61244498    -0.07400
C1164       C  0.35594653  0.68079481  0.59405859    -0.09000
C1165       C  0.17697608  0.62668651  0.58851483    -0.07400
C1166       C  0.15658584  0.61329339  0.61148844    -0.09000
C1167       C  0.34392755  0.61346803  0.38721018    -0.07400
C1168       C  0.32591639  0.62603255  0.41253025    -0.09000
loop_ 
_geom_bond_atom_site_label_1 
_geom_bond_atom_site_label_2 
_geom_bond_distance 
_geom_bond_site_symmetry_2 
_ccdc_geom_bond_type 
O1           C17   1.275       .  A
O1           Zn7   2.010       .  S
C2           O18   1.273       .  A
C2           O15   1.275       .  A
C2         C1164   1.442       .  S
O3           C16   1.280       .  A
O3          Cd10   2.099       .  S
O4           C22   1.271       .  A
O4          Cd13   2.043       .  S
O5           C19   1.275       .  A
O5           Cd9   2.069       .  S
O6           C17   1.276       .  A
O6           Cd9   2.079       .  S
Zn7          O18   2.022       .  S
Zn7          O20   1.987       .  S
Zn7          O12   1.902       .  S
O8           C19   1.277       .  A
O8          Cd13   2.075       .  S
Cd9          O11   2.102       .  S
Cd9          O12   1.984       .  S
Cd10         O14   2.063       .  S
Cd10         O23   2.099       .  S
Cd10         O12   1.984       .  S
O11          C21   1.279       .  A
O12         Cd13   1.971       .  S
Cd13         O15   2.085       .  S
O14          C21   1.272       .  A
C16          O20   1.270       .  A
C16        C1168   1.434       .  S
C17        C1158   1.434       .  S
C19        C1160   1.433       .  S
C21        C1161   1.442       .  S
C22          O23   1.281       .  A
C22        C1165   1.432       .  S
O24          C40   1.273       .  A
O24         Zn30   2.022   1_556  S
C25          O41   1.275       .  A
C25          O38   1.277       .  A
C25        C1145   1.434       .  S
O26          C39   1.280       .  A
O26         Cd33   2.099       .  S
O27          C45   1.279       .  A
O27         Cd36   2.106       .  S
O28          C42   1.277       .  A
O28         Cd32   2.075       .  S
O29          C40   1.275       .  A
O29         Cd32   2.087       .  S
Zn30         O41   2.010       .  S
Zn30         O43   1.987       .  S
Zn30         O35   1.905   1_554  S
O31          C42   1.275       .  A
O31         Cd36   2.069   1_556  S
Cd32         O34   2.044       .  S
Cd32         O35   1.973       .  S
Cd33         O37   2.100   1_554  S
Cd33         O46   2.065       .  S
Cd33         O35   1.985   1_554  S
O34          C44   1.271       .  A
O35         Cd36   1.986   1_556  S
Cd36         O38   2.081       .  S
O37          C44   1.281       .  A
C39          O43   1.270       .  A
C39        C1155   1.434       .  S
C40        C1151   1.442       .  S
C42        C1147   1.433       .  S
C44        C1154   1.433       .  S
C45          O46   1.272       .  A
C45        C1149   1.444       .  S
O47          C63   1.273       .  A
O47         Zn53   2.021       .  S
C48          O64   1.274       .  A
C48          O61   1.276       .  A
C48        C1136   1.434       .  S
O49          C62   1.280       .  A
O49         Cd56   2.100       .  S
O50          C68   1.279       .  A
O50         Cd59   2.104       .  S
O51          C65   1.276       .  A
O51         Cd55   2.073       .  S
O52          C63   1.275       .  A
O52         Cd55   2.085       .  S
Zn53         O64   2.008       .  S
Zn53         O66   1.982       .  S
Zn53         O58   1.903       .  S
O54          C65   1.275       .  A
O54         Cd59   2.070       .  S
Cd55         O57   2.042       .  S
Cd55         O58   1.971       .  S
Cd56         O60   2.102       .  S
Cd56         O69   2.066       .  S
Cd56         O58   1.986       .  S
O57          C67   1.271       .  A
O58         Cd59   1.986       .  S
Cd59         O61   2.080       .  S
O60          C67   1.281       .  A
C62          O66   1.270       .  A
C62        C1144   1.433       .  S
C63        C1137   1.442       .  S
C65        C1133   1.433       .  S
C67        C1142   1.433       .  S
C68          O69   1.273       .  A
C68        C1139   1.443       .  S
O70          C86   1.273       .  A
O70         Zn76   2.024       .  S
C71          O87   1.274       .  A
C71          O84   1.276       .  A
C71        C1121   1.433       .  S
O72          C85   1.280       .  A
O72         Cd79   2.099       .  S
O73          C91   1.279       .  A
O73         Cd82   2.106       .  S
O74          C88   1.277       .  A
O74         Cd78   2.076       .  S
O75          C86   1.275       .  A
O75         Cd78   2.091       .  S
Zn76         O87   2.009       .  S
Zn76         O89   1.986       .  S
Zn76         O81   1.905       .  S
O77          C88   1.275       .  A
O77         Cd82   2.069       .  S
Cd78         O80   2.043       .  S
Cd78         O81   1.972       .  S
Cd79         O83   2.101       .  S
Cd79         O92   2.064       .  S
Cd79         O81   1.984       .  S
O80          C90   1.271       .  A
O81         Cd82   1.987       .  S
Cd82         O84   2.079       .  S
O83          C90   1.281       .  A
C85          O89   1.270       .  A
C85        C1131   1.434       .  S
C86        C1125   1.445       .  S
C88        C1123   1.434       .  S
C90        C1129   1.434       .  S
C91          O92   1.272       .  A
C91        C1127   1.443       .  S
O93         C109   1.272       .  A
O93         Zn99   2.018       .  S
C94         O110   1.273       .  A
C94         O107   1.277       .  A
C94        C1109   1.432       .  S
O95         C108   1.280       .  A
O95        Cd102   2.103       .  S
O96         C114   1.280       .  A
O96        Cd105   2.110       .  S
O97         C111   1.278       .  A
O97        Cd101   2.080       .  S
O98         C109   1.275       .  A
O98        Cd101   2.089       .  S
Zn99        O110   2.001       .  S
Zn99        O112   1.986       .  S
Zn99        O104   1.903       .  S
O100        C111   1.275       .  A
O100       Cd105   2.069       .  S
Cd101       O103   2.043       .  S
Cd101       O104   1.973       .  S
Cd102       O106   2.102       .  S
Cd102       O115   2.062       .  S
Cd102       O104   1.984       .  S
O103        C113   1.271       .  A
O104       Cd105   1.987       .  S
Cd105       O107   2.082       .  S
O106        C113   1.281       .  A
C108        O112   1.270       .  A
C108       C1118   1.435       .  S
C109       C1114   1.442       .  S
C111       C1111   1.435       .  S
C113       C1120   1.434       .  S
C114        O115   1.272       .  A
C114       C1116   1.444       .  S
O116        C132   1.275       .  A
O116       Zn122   2.016       .  S
C117        O133   1.273       .  A
C117        O130   1.275       .  A
C117       C1101   1.444       .  S
O118        C131   1.281       .  A
O118       Cd125   2.103       .  S
O119        C137   1.270       .  A
O119       Cd128   2.042       .  S
O120        C134   1.275       .  A
O120       Cd124   2.069       .  S
O121        C132   1.277       .  A
O121       Cd124   2.085       .  S
Zn122       O133   2.027       .  S
Zn122       O135   1.987       .  S
Zn122       O127   1.906       .  S
O123        C134   1.276       .  A
O123       Cd128   2.070       .  S
Cd124       O126   2.107       .  S
Cd124       O127   1.987       .  S
Cd125       O129   2.065       .  S
Cd125       O138   2.109       .  S
Cd125       O127   1.986       .  S
O126        C136   1.279       .  A
O127       Cd128   1.972       .  S
Cd128       O130   2.087       .  S
O129        C136   1.272       .  A
C131        O135   1.271       .  A
C131       C1105   1.435       .  S
C132       C1097   1.437       .  S
C134       C1099   1.431       .  S
C136       C1104   1.444       .  S
C137        O138   1.282       .  A
C137       C1107   1.436       .  S
O139        C155   1.274       .  A
O139       Zn145   2.008       .  S
C140        O156   1.273       .  A
C140        O153   1.274       .  A
C140       C1091   1.442       .  S
O141        C154   1.280       .  A
O141       Cd148   2.097       .  S
O142        C160   1.271       .  A
O142       Cd151   2.042       .  S
O143        C157   1.275       .  A
O143       Cd147   2.069   1_655  S
O144        C155   1.276       .  A
O144       Cd147   2.078       .  S
Zn145       O156   2.022   1_455  S
Zn145       O158   1.983       .  S
Zn145       O150   1.904   1_455  S
O146        C157   1.277       .  A
O146       Cd151   2.074       .  S
Cd147       O149   2.103       .  S
Cd147       O150   1.986   1_455  S
Cd148       O152   2.066       .  S
Cd148       O161   2.101   1_455  S
Cd148       O150   1.985   1_455  S
O149        C159   1.279       .  A
O150       Cd151   1.971       .  S
Cd151       O153   2.084       .  S
O152        C159   1.273       .  A
C154        O158   1.270       .  A
C154       C1096   1.432       .  S
C155       C1085   1.432       .  S
C157       C1087   1.433       .  S
C159       C1089   1.443       .  S
C160        O161   1.281       .  A
C160       C1094   1.433       .  S
O162        C178   1.273       .  A
O162       Zn168   2.023   1_545  S
C163        O179   1.274       .  A
C163        O176   1.277       .  A
C163       C1073   1.436       .  S
O164        C177   1.281       .  A
O164       Cd171   2.101       .  S
O165        C183   1.280       .  A
O165       Cd174   2.111       .  S
O166        C180   1.277       .  A
O166       Cd170   2.075       .  S
O167        C178   1.275       .  A
O167       Cd170   2.089       .  S
Zn168       O179   2.012       .  S
Zn168       O181   1.985       .  S
Zn168       O173   1.903   1_565  S
O169        C180   1.275       .  A
O169       Cd174   2.071   1_545  S
Cd170       O172   2.043       .  S
Cd170       O173   1.972       .  S
Cd171       O175   2.104   1_565  S
Cd171       O184   2.067       .  S
Cd171       O173   1.985   1_565  S
O172        C182   1.271       .  A
O173       Cd174   1.986   1_545  S
Cd174       O176   2.084       .  S
O175        C182   1.281       .  A
C177        O181   1.270       .  A
C177       C1082   1.434       .  S
C178       C1078   1.443       .  S
C180       C1076   1.434       .  S
C182       C1083   1.434       .  S
C183        O184   1.273       .  A
C183       C1080   1.446       .  S
O185        C201   1.275       .  A
O185       Zn191   2.010       .  S
C186        O202   1.273       .  A
C186        O199   1.274       .  A
C186       C1065   1.444       .  S
O187        C200   1.280       .  A
O187       Cd194   2.098       .  S
O188        C206   1.271       .  A
O188       Cd197   2.042       .  S
O189        C203   1.275       .  A
O189       Cd193   2.072       .  S
O190        C201   1.276       .  A
O190       Cd193   2.079       .  S
Zn191       O202   2.029       .  S
Zn191       O204   1.985       .  S
Zn191       O196   1.906       .  S
O192        C203   1.276       .  A
O192       Cd197   2.072       .  S
Cd193       O195   2.107       .  S
Cd193       O196   1.988       .  S
Cd194       O198   2.067       .  S
Cd194       O207   2.101       .  S
Cd194       O196   1.985       .  S
O195        C205   1.279       .  A
O196       Cd197   1.972       .  S
Cd197       O199   2.084       .  S
O198        C205   1.273       .  A
C200        O204   1.270       .  A
C200       C1071   1.433       .  S
C201       C1061   1.433       .  S
C203       C1064   1.433       .  S
C205       C1067   1.445       .  S
C206        O207   1.281       .  A
C206       C1069   1.433       .  S
C208       C1058   1.469       .  S
C208       C1059   1.466       .  S
C208       C1068   1.477       .  S
C208       C1081   1.468       .  S
C209       C1053   1.468       .  S
C209       C1056   1.464       .  S
C209       C1077   1.475       .  S
C209       C1093   1.467       .  S
C210       C1047   1.477       .  S
C210       C1049   1.467       .  S
C210       C1052   1.464       .  S
C210       C1070   1.467       .  S
C211       C1043   1.467       .  S
C211       C1046   1.465       .  S
C211       C1090   1.475       .  S
C211       C1119   1.468       .  S
C212       C1038   1.468       .  S
C212       C1040   1.471       .  S
C212       C1042   1.465       .  S
C212       C1115   1.477       .  S
C213       C1031   1.474       .  S
C213       C1033   1.467       .  S
C213       C1036   1.466       .  S
C213       C1159   1.464       .  S
O214        C230   1.274       .  A
O214       Zn220   2.034   1_455  S
C215        O231   1.274       .  A
C215        O228   1.272       .  A
C215       C1057   1.438       .  S
O216        C229   1.274       .  A
O216       Cd223   2.078       .  S
O217        C235   1.273       .  A
O217       Cd226   2.063       .  S
O218        C232   1.273       .  A
O218       Cd222   2.076   1_565  S
O219        C230   1.272       .  A
O219       Cd222   2.061       .  S
Zn220       O231   2.028   1_545  S
Zn220       O233   2.021       .  S
Zn220       O225   1.952       .  S
O221        C232   1.272       .  A
O221       Cd226   2.065   1_455  S
Cd222       O224   2.069       .  S
Cd222       O225   2.000   1_455  S
Cd223       O227   2.089       .  S
Cd223       O236   2.085       .  S
Cd223       O225   2.019       .  S
O224        C234   1.273       .  A
O225       Cd226   2.001   1_545  S
Cd226       O228   2.072       .  S
O227        C234   1.275   1_655  A
C229        O233   1.274       .  A
C229       C1054   1.437       .  S
C230       C1044   1.436       .  S
C232       C1035   1.435       .  S
C234       C1039   1.439       .  S
C235        O236   1.275   1_565  A
C235       C1050   1.436       .  S
O237        C253   1.273       .  A
O237       Zn243   2.027       .  S
C238        O254   1.275       .  A
C238        O251   1.276       .  A
C238       C1021   1.434       .  S
O239        C252   1.280       .  A
O239       Cd246   2.099       .  S
O240        C258   1.279       .  A
O240       Cd249   2.105       .  S
O241        C255   1.277       .  A
O241       Cd245   2.073       .  S
O242        C253   1.274       .  A
O242       Cd245   2.085       .  S
Zn243       O254   2.013       .  S
Zn243       O256   1.988       .  S
Zn243       O248   1.906       .  S
O244        C255   1.275       .  A
O244       Cd249   2.070       .  S
Cd245       O247   2.043       .  S
Cd245       O248   1.972       .  S
Cd246       O250   2.103       .  S
Cd246       O259   2.064       .  S
Cd246       O248   1.985       .  S
O247        C257   1.271       .  A
O248       Cd249   1.988       .  S
Cd249       O251   2.078       .  S
O250        C257   1.281       .  A
C252        O256   1.270       .  A
C252       C1028   1.434       .  S
C253       C1023   1.443       .  S
C255       C1055   1.433       .  S
C257       C1029   1.434       .  S
C258        O259   1.272       .  A
C258       C1025   1.443       .  S
O260        C276   1.272       .  A
O260       Zn266   2.021   1_455  S
C261        O277   1.274       .  A
C261        O274   1.277       .  A
C261       C1014   1.434       .  S
O262        C275   1.280       .  A
O262       Cd269   2.101       .  S
O263        C281   1.280       .  A
O263       Cd272   2.108       .  S
O264        C278   1.277       .  A
O264       Cd268   2.076       .  S
O265        C276   1.275       .  A
O265       Cd268   2.091       .  S
Zn266       O277   2.008       .  S
Zn266       O279   1.984       .  S
Zn266       O271   1.903   1_655  S
O267        C278   1.275       .  A
O267       Cd272   2.067   1_455  S
Cd268       O270   2.042       .  S
Cd268       O271   1.972       .  S
Cd269       O273   2.104   1_655  S
Cd269       O282   2.064       .  S
Cd269       O271   1.984   1_655  S
O270        C280   1.271       .  A
O271       Cd272   1.986   1_455  S
Cd272       O274   2.083       .  S
O273        C280   1.281       .  A
C275        O279   1.270       .  A
C275       C1019   1.434       .  S
C276       C1017   1.444       .  S
C278       C1016   1.433       .  S
C280       C1034   1.434       .  S
C281        O282   1.272       .  A
C281       C1048   1.444       .  S
C283       C1010   1.469       .  S
C283       C1012   1.464       .  S
C283       C1018   1.476       .  S
C283       C1166   1.466       .  S
C284       C1007   1.470       .  S
C284       C1095   1.465       .  S
C284       C1112   1.465       .  S
C284       C1140   1.476       .  S
C285       C1003   1.477       .  S
C285       C1006   1.468       .  S
C285       C1020   1.467       .  S
C285       C1063   1.464       .  S
C286       C1001   1.465       .  S
C286       C1030   1.468       .  S
C286       C1092   1.474       .  S
C286       C1100   1.462       .  S
C287        C995   1.468       .  S
C287        C997   1.467       .  S
C287        C999   1.463       .  S
C287       C1026   1.476       .  S
C288        C992   1.467       .  S
C288        C993   1.463       .  S
C288       C1141   1.467       .  S
C288       C1162   1.474       .  S
O289        C305   1.274       .  A
O289       Zn295   2.030       .  S
C290        O306   1.274       .  A
C290        O303   1.272       .  A
C290       C1005   1.436       .  S
O291        C304   1.275       .  A
O291       Cd298   2.082       .  S
O292        C310   1.273       .  A
O292       Cd301   2.062       .  S
O293        C307   1.273       .  A
O293       Cd297   2.075   1_655  S
O294        C305   1.272       .  A
O294       Cd297   2.063       .  S
Zn295       O306   2.025   1_455  S
Zn295       O308   2.020       .  S
Zn295       O300   1.950   1_455  S
O296        C307   1.272       .  A
O296       Cd301   2.065       .  S
Cd297       O299   2.069       .  S
Cd297       O300   2.001   1_455  S
Cd298       O302   2.087       .  S
Cd298       O311   2.084   1_455  S
Cd298       O300   2.018   1_455  S
O299        C309   1.273       .  A
O300       Cd301   2.001       .  S
Cd301       O303   2.071       .  S
O302        C309   1.275       .  A
C304        O308   1.273       .  A
C304       C1009   1.438       .  S
C305        C991   1.435       .  S
C307       C1002   1.434       .  S
C309       C1008   1.438       .  S
C310        O311   1.275       .  A
C310        C998   1.435       .  S
C312        C987   1.468       .  S
C312        C990   1.464       .  S
C312       C1102   1.477       .  S
C312       C1130   1.467       .  S
C313        C984   1.470       .  S
C313        C985   1.466       .  S
C313       C1106   1.469       .  S
C313       C1150   1.476       .  S
C314        C975   1.475       .  S
C314        C977   1.466       .  S
C314        C979   1.467       .  S
C314        C981   1.464       .  S
C315        C967   1.466       .  S
C315        C969   1.478       .  S
C315        C972   1.469       .  S
C315        C974   1.466       .  S
C316        C961   1.475       .  S
C316        C963   1.469       .  S
C316        C965   1.465       .  S
C316       C1153   1.467       .  S
C317        C957   1.467       .  S
C317        C960   1.467       .  S
C317       C1128   1.476       .  S
C317       C1135   1.465       .  S
O318        C334   1.274       .  A
O318       Zn324   2.028       .  S
C319        O335   1.275       .  A
C319        O332   1.272       .  A
C319        C983   1.438       .  S
O320        C333   1.274       .  A
O320       Cd327   2.079       .  S
O321        C339   1.273       .  A
O321       Cd330   2.066       .  S
O322        C336   1.273       .  A
O322       Cd326   2.070   1_554  S
O323        C334   1.273       .  A
O323       Cd326   2.073       .  S
Zn324       O335   2.038   1_556  S
Zn324       O337   2.024       .  S
Zn324       O329   1.952   1_556  S
O325        C336   1.273       .  A
O325       Cd330   2.074       .  S
Cd326       O328   2.067       .  S
Cd326       O329   2.003   1_556  S
Cd327       O331   2.083       .  S
Cd327       O340   2.084   1_556  S
Cd327       O329   2.018   1_556  S
O328        C338   1.273       .  A
O329       Cd330   2.001       .  S
Cd330       O332   2.064       .  S
O331        C338   1.275       .  A
C333        O337   1.274       .  A
C333        C964   1.438       .  S
C334        C971   1.438       .  S
C336        C959   1.435       .  S
C338        C980   1.436       .  S
C339        O340   1.275       .  A
C339        C988   1.437       .  S
O341        C357   1.272       .  A
O341       Zn347   2.021       .  S
C342        O358   1.275       .  A
C342        O355   1.276       .  A
C342       C1011   1.434       .  S
O343        C356   1.280       .  A
O343       Cd350   2.100       .  S
O344        C362   1.279       .  A
O344       Cd353   2.106       .  S
O345        C359   1.277       .  A
O345       Cd349   2.075       .  S
O346        C357   1.274       .  A
O346       Cd349   2.084       .  S
Zn347       O358   2.011       .  S
Zn347       O360   1.982       .  S
Zn347       O352   1.905       .  S
O348        C359   1.275       .  A
O348       Cd353   2.068       .  S
Cd349       O351   2.041       .  S
Cd349       O352   1.973       .  S
Cd350       O354   2.100       .  S
Cd350       O363   2.070       .  S
Cd350       O352   1.985       .  S
O351        C361   1.271       .  A
O352       Cd353   1.985       .  S
Cd353       O355   2.078       .  S
O354        C361   1.281       .  A
C356        O360   1.270       .  A
C356        C956   1.433       .  S
C357        C953   1.441       .  S
C359        C952   1.433       .  S
C361        C978   1.432       .  S
C362        O363   1.273       .  A
C362        C970   1.445       .  S
C364        C947   1.467       .  S
C364        C949   1.467       .  S
C364       C1062   1.464       .  S
C364       C1103   1.476       .  S
C365        C942   1.475       .  S
C365        C943   1.470       .  S
C365        C946   1.465       .  S
C365       C1027   1.467       .  S
C366        C937   1.468       .  S
C366        C939   1.462       .  S
C366        C955   1.466       .  S
C366       C1163   1.474       .  S
C367        C933   1.475       .  S
C367        C936   1.467       .  S
C367       C1134   1.464       .  S
C367       C1167   1.467       .  S
C368        C932   1.467       .  S
C368       C1024   1.475       .  S
C368       C1108   1.470       .  S
C368       C1124   1.465       .  S
C369        C927   1.467       .  S
C369        C929   1.467       .  S
C369        C954   1.473       .  S
C369       C1110   1.463       .  S
O370        C386   1.274       .  A
O370       Zn376   2.023       .  S
C371        O387   1.274       .  A
C371        O384   1.272       .  A
C371        C931   1.436       .  S
O372        C385   1.274       .  A
O372       Cd379   2.081       .  S
O373        C391   1.273       .  A
O373       Cd382   2.066       .  S
O374        C388   1.273       .  A
O374       Cd378   2.069       .  S
O375        C386   1.273       .  A
O375       Cd378   2.072       .  S
Zn376       O387   2.033       .  S
Zn376       O389   2.023       .  S
Zn376       O381   1.951       .  S
O377        C388   1.273       .  A
O377       Cd382   2.076       .  S
Cd378       O380   2.068       .  S
Cd378       O381   2.001       .  S
Cd379       O383   2.082       .  S
Cd379       O392   2.083       .  S
Cd379       O381   2.018       .  S
O380        C390   1.274       .  A
O381       Cd382   2.001       .  S
Cd382       O384   2.063       .  S
O383        C390   1.275       .  A
C385        O389   1.274       .  A
C385        C944   1.439       .  S
C386        C930   1.436       .  S
C388        C935   1.436       .  S
C390        C938   1.437       .  S
C391        O392   1.275       .  A
C391        C950   1.436       .  S
O393        C409   1.274       .  A
O393       Zn399   2.006       .  S
C394        O410   1.272       .  A
C394        O407   1.275       .  A
C394        C962   1.442       .  S
O395        C408   1.280       .  A
O395       Cd402   2.101       .  S
O396        C414   1.271       .  A
O396       Cd405   2.041       .  S
O397        C411   1.275       .  A
O397       Cd401   2.070       .  S
O398        C409   1.276       .  A
O398       Cd401   2.076       .  S
Zn399       O410   2.021       .  S
Zn399       O412   1.981       .  S
Zn399       O404   1.901       .  S
O400        C411   1.277       .  A
O400       Cd405   2.074       .  S
Cd401       O403   2.104       .  S
Cd401       O404   1.985       .  S
Cd402       O406   2.064       .  S
Cd402       O415   2.102       .  S
Cd402       O404   1.983       .  S
O403        C413   1.279       .  A
O404       Cd405   1.970       .  S
Cd405       O407   2.087       .  S
O406        C413   1.272       .  A
C408        O412   1.270       .  A
C408        C968   1.433       .  S
C409        C940   1.431       .  S
C411        C922   1.434       .  S
C413        C923   1.442       .  S
C414        O415   1.281       .  A
C414        C925   1.433       .  S
O416        C432   1.274       .  A
O416       Zn422   2.005       .  S
C417        O433   1.273       .  A
C417        O430   1.275       .  A
C417        C913   1.442       .  S
O418        C431   1.280       .  A
O418       Cd425   2.103       .  S
O419        C437   1.271       .  A
O419       Cd428   2.042       .  S
O420        C434   1.275       .  A
O420       Cd424   2.073   1_545  S
O421        C432   1.277       .  A
O421       Cd424   2.080       .  S
Zn422       O433   2.021   1_565  S
Zn422       O435   1.988       .  S
Zn422       O427   1.904   1_565  S
O423        C434   1.276       .  A
O423       Cd428   2.075       .  S
Cd424       O426   2.107       .  S
Cd424       O427   1.988   1_565  S
Cd425       O429   2.061       .  S
Cd425       O438   2.100   1_565  S
Cd425       O427   1.985   1_565  S
O426        C436   1.280       .  A
O427       Cd428   1.972       .  S
Cd428       O430   2.086       .  S
O429        C436   1.272       .  A
C431        O435   1.270       .  A
C431        C918   1.436       .  S
C432        C911   1.432       .  S
C434       C1045   1.435       .  S
C436        C915   1.443       .  S
C437        O438   1.281       .  A
C437        C919   1.432       .  S
O439        C455   1.273       .  A
O439       Zn445   2.024   1_556  S
C440        O456   1.274       .  A
C440        O453   1.277       .  A
C440        C901   1.434       .  S
O441        C454   1.280       .  A
O441       Cd448   2.101       .  S
O442        C460   1.280       .  A
O442       Cd451   2.113       .  S
O443        C457   1.277       .  A
O443       Cd447   2.077       .  S
O444        C455   1.275       .  A
O444       Cd447   2.088       .  S
Zn445       O456   2.009       .  S
Zn445       O458   1.986       .  S
Zn445       O450   1.905   1_554  S
O446        C457   1.276       .  A
O446       Cd451   2.073   1_556  S
Cd447       O449   2.043       .  S
Cd447       O450   1.972       .  S
Cd448       O452   2.102   1_554  S
Cd448       O461   2.062       .  S
Cd448       O450   1.984   1_554  S
O449        C459   1.271       .  A
O450       Cd451   1.988   1_556  S
Cd451       O453   2.082       .  S
O452        C459   1.281       .  A
C454        O458   1.270       .  A
C454        C910   1.434       .  S
C455        C905   1.444       .  S
C457        C973   1.435       .  S
C459        C907   1.433       .  S
C460        O461   1.272       .  A
C460        C903   1.445       .  S
C462        C897   1.467       .  S
C462        C899   1.464       .  S
C462        C908   1.467       .  S
C462        C924   1.475       .  S
C463        C893   1.475       .  S
C463        C896   1.469       .  S
C463        C926   1.467       .  S
C463       C1148   1.464       .  S
C464        C889   1.470       .  S
C464        C892   1.464       .  S
C464        C904   1.477       .  S
C464        C917   1.469       .  S
C465        C886   1.467       .  S
C465        C887   1.463       .  S
C465        C914   1.474       .  S
C465       C1132   1.467       .  S
C466        C878   1.468       .  S
C466        C879   1.475       .  S
C466        C882   1.469       .  S
C466        C883   1.465       .  S
C467        C874   1.467       .  S
C467        C876   1.469       .  S
C467       C1075   1.465       .  S
C467       C1126   1.477       .  S
O468        C484   1.274       .  A
O468       Zn474   2.031       .  S
C469        O485   1.274       .  A
C469        O482   1.273       .  A
C469        C881   1.438       .  S
O470        C483   1.274       .  A
O470       Cd477   2.081   1_556  S
O471        C489   1.273       .  A
O471       Cd480   2.067       .  S
O472        C486   1.274       .  A
O472       Cd476   2.078   1_545  S
O473        C484   1.273       .  A
O473       Cd476   2.064   1_556  S
Zn474       O485   2.025   1_565  S
Zn474       O487   2.021       .  S
Zn474       O479   1.952   1_565  S
O475        C486   1.273       .  A
O475       Cd480   2.069       .  S
Cd476       O478   2.068       .  S
Cd476       O479   2.002   1_564  S
Cd477       O481   2.088       .  S
Cd477       O490   2.085   1_565  S
Cd477       O479   2.019   1_564  S
O478        C488   1.273       .  A
O479       Cd480   2.002   1_556  S
Cd480       O482   2.077   1_554  S
O481        C488   1.275       .  A
C483        O487   1.274       .  A
C483        C895   1.438       .  S
C484        C898   1.436       .  S
C486        C885   1.436       .  S
C488        C890   1.439       .  S
C489        O490   1.275       .  A
C489        C875   1.437       .  S
O491        C507   1.274       .  A
O491       Zn497   2.010       .  S
C492        O508   1.273       .  A
C492        O505   1.275       .  A
C492        C865   1.441       .  S
O493        C506   1.280       .  A
O493       Cd500   2.101       .  S
O494        C512   1.271       .  A
O494       Cd503   2.044       .  S
O495        C509   1.275       .  A
O495       Cd499   2.070   1_455  S
O496        C507   1.277       .  A
O496       Cd499   2.083       .  S
Zn497       O508   2.021   1_655  S
Zn497       O510   1.985       .  S
Zn497       O502   1.903   1_655  S
O498        C509   1.277       .  A
O498       Cd503   2.075       .  S
Cd499       O501   2.107       .  S
Cd499       O502   1.986   1_655  S
Cd500       O504   2.065       .  S
Cd500       O513   2.099   1_655  S
Cd500       O502   1.985   1_655  S
O501        C511   1.280       .  A
O502       Cd503   1.974       .  S
Cd503       O505   2.085       .  S
O504        C511   1.273       .  A
C506        O510   1.270       .  A
C506        C869   1.435       .  S
C507       C1060   1.435       .  S
C509        C994   1.433       .  S
C511        C867   1.444       .  S
C512        O513   1.280       .  A
C512        C872   1.432       .  S
O514        C530   1.274       .  A
O514       Zn520   2.007       .  S
C515        O531   1.273       .  A
C515        O528   1.275       .  A
C515        C862   1.443       .  S
O516        C529   1.280       .  A
O516       Cd523   2.100       .  S
O517        C535   1.271       .  A
O517       Cd526   2.043       .  S
O518        C532   1.275       .  A
O518       Cd522   2.070   1_554  S
O519        C530   1.277       .  A
O519       Cd522   2.081       .  S
Zn520       O531   2.023   1_556  S
Zn520       O533   1.985       .  S
Zn520       O525   1.903       .  S
O521        C532   1.277       .  A
O521       Cd526   2.075       .  S
Cd522       O524   2.106       .  S
Cd522       O525   1.987       .  S
Cd523       O527   2.064       .  S
Cd523       O536   2.103   1_556  S
Cd523       O525   1.984       .  S
O524        C534   1.279       .  A
O525       Cd526   1.972   1_556  S
Cd526       O528   2.087       .  S
O527        C534   1.272       .  A
C529        O533   1.270       .  A
C529        C864   1.434       .  S
C530        C859   1.433       .  S
C532        C989   1.433       .  S
C534        C880   1.443       .  S
C535        O536   1.281       .  A
C535        C873   1.434       .  S
O537        C553   1.274       .  A
O537       Zn543   2.005       .  S
C538        O554   1.273       .  A
C538        O551   1.274       .  A
C538       C1032   1.442       .  S
O539        C552   1.280       .  A
O539       Cd546   2.102       .  S
O540        C558   1.271       .  A
O540       Cd549   2.042       .  S
O541        C555   1.275       .  A
O541       Cd545   2.072   1_565  S
O542        C553   1.277       .  A
O542       Cd545   2.080       .  S
Zn543       O554   2.023   1_545  S
Zn543       O556   1.986       .  S
Zn543       O548   1.905       .  S
O544        C555   1.276       .  A
O544       Cd549   2.073       .  S
Cd545       O547   2.109       .  S
Cd545       O548   1.987       .  S
Cd546       O550   2.064       .  S
Cd546       O559   2.103   1_545  S
Cd546       O548   1.985       .  S
O547        C557   1.280       .  A
O548       Cd549   1.972   1_545  S
Cd549       O551   2.084       .  S
O550        C557   1.272       .  A
C552        O556   1.270       .  A
C552       C1037   1.435       .  S
C553        C853   1.432       .  S
C555        C900   1.434       .  S
C557        C856   1.444       .  S
C558        O559   1.281       .  A
C558        C858   1.434       .  S
C560        C847   1.467       .  S
C560        C849   1.470       .  S
C560        C851   1.466       .  S
C560        C855   1.477       .  S
C561        C846   1.469       .  S
C561        C866   1.474       .  S
C561        C909   1.468       .  S
C561        C912   1.463       .  S
C562        C843   1.468       .  S
C562        C861   1.475       .  S
C562       C1084   1.468       .  S
C562       C1088   1.464       .  S
C563        C842   1.469       .  S
C563        C870   1.469       .  S
C563       C1079   1.478       .  S
C563       C1146   1.465       .  S
C564        C840   1.468       .  S
C564        C857   1.467       .  S
C564        C906   1.476       .  S
C564       C1015   1.464       .  S
C565        C833   1.476       .  S
C565        C835   1.470       .  S
C565        C838   1.466       .  S
C565        C863   1.467       .  S
O566        C582   1.274       .  A
O566       Zn572   2.035   1_554  S
C567        O583   1.274       .  A
C567        O580   1.273       .  A
C567        C850   1.439       .  S
O568        C581   1.275       .  A
O568       Cd575   2.084   1_545  S
O569        C587   1.273       .  A
O569       Cd578   2.064       .  S
O570        C584   1.274       .  A
O570       Cd574   2.080   1_455  S
O571        C582   1.273       .  A
O571       Cd574   2.065   1_545  S
Zn572       O583   2.029   1_655  S
Zn572       O585   2.024       .  S
Zn572       O577   1.953       .  S
O573        C584   1.273       .  A
O573       Cd578   2.070   1_554  S
Cd574       O576   2.066       .  S
Cd574       O577   2.003   1_564  S
Cd575       O579   2.088   1_556  S
Cd575       O588   2.087       .  S
Cd575       O577   2.021   1_565  S
O576        C586   1.273       .  A
O577       Cd578   2.002   1_645  S
Cd578       O580   2.074   1_565  S
O579        C586   1.276       .  A
C581        O585   1.274       .  A
C581        C836   1.439       .  S
C582        C844   1.437       .  S
C584        C845   1.438       .  S
C586        C841   1.438       .  S
C587        O588   1.275   1_455  A
C587        C839   1.437       .  S
O589        C605   1.275       .  A
O589       Zn595   2.014       .  S
C590        O606   1.273       .  A
C590        O603   1.275       .  A
C590        C829   1.443       .  S
O591        C604   1.280       .  A
O591       Cd598   2.099       .  S
O592        C610   1.270       .  A
O592       Cd601   2.039       .  S
O593        C607   1.275       .  A
O593       Cd597   2.070   1_554  S
O594        C605   1.277       .  A
O594       Cd597   2.081       .  S
Zn595       O606   2.026   1_556  S
Zn595       O608   1.986       .  S
Zn595       O600   1.904       .  S
O596        C607   1.276       .  A
O596       Cd601   2.071       .  S
Cd597       O599   2.105       .  S
Cd597       O600   1.986       .  S
Cd598       O602   2.064       .  S
Cd598       O611   2.104   1_556  S
Cd598       O600   1.984       .  S
O599        C609   1.279       .  A
O600       Cd601   1.969   1_556  S
Cd601       O603   2.086       .  S
O602        C609   1.273       .  A
C604        O608   1.271       .  A
C604        C832   1.433       .  S
C605        C852   1.435       .  S
C607        C888   1.432       .  S
C609        C976   1.443       .  S
C610        O611   1.281       .  A
C610        C958   1.433       .  S
O612        C628   1.274       .  A
O612       Zn618   2.009       .  S
C613        O629   1.273       .  A
C613        O626   1.275       .  A
C613       C1004   1.444       .  S
O614        C627   1.280       .  A
O614       Cd621   2.101       .  S
O615        C633   1.271       .  A
O615       Cd624   2.043       .  S
O616        C630   1.275       .  A
O616       Cd620   2.070       .  S
O617        C628   1.277       .  A
O617       Cd620   2.082       .  S
Zn618       O629   2.026       .  S
Zn618       O631   1.988       .  S
Zn618       O623   1.903       .  S
O619        C630   1.277       .  A
O619       Cd624   2.077       .  S
Cd620       O622   2.108       .  S
Cd620       O623   1.986       .  S
Cd621       O625   2.065       .  S
Cd621       O634   2.103       .  S
Cd621       O623   1.984       .  S
O622        C632   1.280       .  A
O623       Cd624   1.972       .  S
Cd624       O626   2.089       .  S
O625        C632   1.272       .  A
C627        O631   1.271       .  A
C627        C996   1.435       .  S
C628        C945   1.434       .  S
C630        C966   1.434       .  S
C632        C825   1.444       .  S
C633        O634   1.281       .  A
C633        C827   1.434       .  S
O635        C651   1.273       .  A
O635       Zn641   2.025   1_655  S
C636        O652   1.274       .  A
C636        O649   1.277       .  A
C636       C1041   1.434       .  S
O637        C650   1.280       .  A
O637       Cd644   2.100       .  S
O638        C656   1.279       .  A
O638       Cd647   2.105       .  S
O639        C653   1.276       .  A
O639       Cd643   2.070       .  S
O640        C651   1.275       .  A
O640       Cd643   2.085       .  S
Zn641       O652   2.010       .  S
Zn641       O654   1.985       .  S
Zn641       O646   1.904       .  S
O642        C653   1.275       .  A
O642       Cd647   2.071   1_655  S
Cd643       O645   2.042       .  S
Cd643       O646   1.971   1_655  S
Cd644       O648   2.104   1_455  S
Cd644       O657   2.062       .  S
Cd644       O646   1.985       .  S
O645        C655   1.271       .  A
O646       Cd647   1.987       .  S
Cd647       O649   2.082       .  S
O648        C655   1.281       .  A
C650        O654   1.270       .  A
C650        C848   1.433       .  S
C651        C834   1.443       .  S
C653       C1000   1.432       .  S
C655        C824   1.434       .  S
C656        O657   1.272       .  A
C656        C821   1.442       .  S
C658        C819   1.468       .  S
C658        C823   1.468       .  S
C658        C826   1.476       .  S
C658        C860   1.464       .  S
C659        C818   1.469       .  S
C659        C822   1.474       .  S
C659        C831   1.467       .  S
C659        C951   1.464       .  S
C660        C815   1.470       .  S
C660        C828   1.468       .  S
C660       C1013   1.465       .  S
C660       C1152   1.474       .  S
C661        C814   1.469       .  S
C661        C830   1.476       .  S
C661       C1086   1.463       .  S
C661       C1143   1.466       .  S
C662        C811   1.471       .  S
C662        C868   1.477       .  S
C662       C1098   1.468       .  S
C662       C1156   1.468       .  S
C663        C809   1.469       .  S
C663        C871   1.465       .  S
C663        C902   1.465       .  S
C663       C1138   1.474       .  S
O664        C680   1.274       .  A
O664       Zn670   2.029   1_455  S
C665        O681   1.275       .  A
C665        O678   1.273       .  A
C665        C816   1.439       .  S
O666        C679   1.275       .  A
O666       Cd673   2.085       .  S
O667        C685   1.273       .  A
O667       Cd676   2.064       .  S
O668        C682   1.273       .  A
O668       Cd672   2.071   1_556  S
O669        C680   1.273       .  A
O669       Cd672   2.073       .  S
Zn670       O681   2.037   1_554  S
Zn670       O683   2.026       .  S
Zn670       O675   1.953   1_554  S
O671        C682   1.273       .  A
O671       Cd676   2.079   1_455  S
Cd672       O674   2.067       .  S
Cd672       O675   2.003   1_454  S
Cd673       O677   2.086       .  S
Cd673       O686   2.087   1_554  S
Cd673       O675   2.022   1_554  S
O674        C684   1.273       .  A
O675       Cd676   2.002       .  S
Cd676       O678   2.067       .  S
O677        C684   1.275   1_655  A
C679        O683   1.274       .  A
C679        C812   1.440       .  S
C680        C810   1.438       .  S
C682        C817   1.438       .  S
C684        C813   1.437       .  S
C685        O686   1.275       .  A
C685        C820   1.437       .  S
O687        C703   1.273       .  A
O687       Zn693   2.024       .  S
C688        O704   1.274       .  A
C688        O701   1.277       .  A
C688        C891   1.433       .  S
O689        C702   1.280       .  A
O689       Cd696   2.100       .  S
O690        C708   1.279       .  A
O690       Cd699   2.105       .  S
O691        C705   1.277       .  A
O691       Cd695   2.078       .  S
O692        C703   1.275       .  A
O692       Cd695   2.086       .  S
Zn693       O704   2.007       .  S
Zn693       O706   1.988       .  S
Zn693       O698   1.906       .  S
O694        C705   1.275       .  A
O694       Cd699   2.073       .  S
Cd695       O697   2.040       .  S
Cd695       O698   1.974       .  S
Cd696       O700   2.101       .  S
Cd696       O709   2.064       .  S
Cd696       O698   1.987       .  S
O697        C707   1.271       .  A
O698       Cd699   1.988       .  S
Cd699       O701   2.080       .  S
O700        C707   1.281       .  A
C702        O706   1.270       .  A
C702        C807   1.434       .  S
C703        C805   1.443       .  S
C705        C986   1.436       .  S
C707        C948   1.433       .  S
C708        O709   1.272       .  A
C708        C934   1.443       .  S
O710        C726   1.274       .  A
O710       Zn716   2.007       .  S
C711        O727   1.272       .  A
C711        O724   1.274       .  A
C711        C802   1.440       .  S
O712        C725   1.280       .  A
O712       Cd719   2.101       .  S
O713        C731   1.271       .  A
O713       Cd722   2.042       .  S
O714        C728   1.275       .  A
O714       Cd718   2.072       .  S
O715        C726   1.277       .  A
O715       Cd718   2.084       .  S
Zn716       O727   2.020       .  S
Zn716       O729   1.982       .  S
Zn716       O721   1.903       .  S
O717        C728   1.276       .  A
O717       Cd722   2.071       .  S
Cd718       O720   2.107       .  S
Cd718       O721   1.987       .  S
Cd719       O723   2.063       .  S
Cd719       O732   2.103       .  S
Cd719       O721   1.985       .  S
O720        C730   1.280       .  A
O721       Cd722   1.972       .  S
Cd722       O724   2.081       .  S
O723        C730   1.272       .  A
C725        O729   1.269       .  A
C725        C803   1.434       .  S
C726        C884   1.434       .  S
C728        C982   1.433       .  S
C730        C941   1.442       .  S
C731        O732   1.281       .  A
C731        C928   1.434       .  S
O733        C749   1.273       .  A
O733       Zn739   2.021   1_565  S
C734        O750   1.274       .  A
C734        O747   1.277       .  A
C734        C837   1.435       .  S
O735        C748   1.280       .  A
O735       Cd742   2.101       .  S
O736        C754   1.280       .  A
O736       Cd745   2.108       .  S
O737        C751   1.277       .  A
O737       Cd741   2.073       .  S
O738        C749   1.275       .  A
O738       Cd741   2.087       .  S
Zn739       O750   2.011       .  S
Zn739       O752   1.985       .  S
Zn739       O744   1.905       .  S
O740        C751   1.276       .  A
O740       Cd745   2.072   1_565  S
Cd741       O743   2.046       .  S
Cd741       O744   1.973   1_565  S
Cd742       O746   2.108   1_545  S
Cd742       O755   2.064       .  S
Cd742       O744   1.986       .  S
O743        C753   1.271       .  A
O744       Cd745   1.987       .  S
Cd745       O747   2.083       .  S
O746        C753   1.282       .  A
C748        O752   1.270       .  A
C748        C877   1.435       .  S
C749        C894   1.442       .  S
C751       C1051   1.433       .  S
C753        C799   1.437       .  S
C754        O755   1.272       .  A
C754        C797   1.444       .  S
C756        C795   1.468       .  S
C756        C801   1.473       .  S
C756        C854   1.463       .  S
C756       C1117   1.469       .  S
C757        C794   1.467       .  S
C757        C800   1.470       .  S
C757        C921   1.465       .  S
C757       C1066   1.476       .  S
C758        C791   1.469       .  S
C758        C798   1.476       .  S
C758        C804   1.467       .  S
C758       C1022   1.464       .  S
C759        C790   1.469       .  S
C759        C808   1.467       .  S
C759        C916   1.475       .  S
C759       C1157   1.464       .  S
C760        C788   1.471       .  S
C760        C806   1.475       .  S
C760       C1072   1.466       .  S
C760       C1074   1.467       .  S
C761        C785   1.468       .  S
C761        C920   1.466       .  S
C761       C1113   1.474       .  S
C761       C1122   1.463       .  S
O762        C778   1.274       .  A
O762       Zn768   2.034       .  S
C763        O779   1.274       .  A
C763        O776   1.273       .  A
C763        C789   1.438       .  S
O764        C777   1.274   1_545  A
O764       Cd771   2.081       .  S
O765        C783   1.273       .  A
O765       Cd774   2.066       .  S
O766        C780   1.274       .  A
O766       Cd770   2.081       .  S
O767        C778   1.272       .  A
O767       Cd770   2.062   1_565  S
Zn768       O779   2.027       .  S
Zn768       O781   2.030       .  S
Zn768       O773   1.953   1_565  S
O769        C780   1.273       .  A
O769       Cd774   2.067       .  S
Cd770       O772   2.069       .  S
Cd770       O773   2.003       .  S
Cd771       O775   2.084       .  S
Cd771       O784   2.084       .  S
Cd771       O773   2.019       .  S
O772        C782   1.273       .  A
O773       Cd774   2.002       .  S
Cd774       O776   2.074   1_545  S
O775        C782   1.275       .  A
C777        O781   1.275       .  A
C777        C787   1.440       .  S
C778        C793   1.435       .  S
C780        C796   1.437       .  S
C782        C792   1.438       .  S
C783        O784   1.275       .  A
C783        C786   1.437       .  S
C785        C786   1.208       .  T
C787        C788   1.210       .  T
C789        C790   1.208       .  T
C791        C792   1.208       .  T
C793        C794   1.207       .  T
C795        C796   1.208       .  T
C797        C798   1.212       .  T
C799        C800   1.208       .  T
C801        C802   1.210       .  T
C803        C804   1.207       .  T
C805        C806   1.212       .  T
C807        C808   1.207       .  T
C809        C810   1.209       .  T
C811        C812   1.210       .  T
C813        C814   1.208       .  T
C815        C816   1.209       .  T
C817        C818   1.208       .  T
C819        C820   1.208       .  T
C821        C822   1.211       .  T
C823        C824   1.207       .  T
C825        C826   1.212       .  T
C827        C828   1.207       .  T
C829        C830   1.212       .  T
C831        C832   1.207       .  T
C833        C834   1.212       .  T
C835        C836   1.209       .  T
C837        C838   1.207       .  T
C839        C840   1.208       .  T
C841        C842   1.209       .  T
C843        C844   1.208       .  T
C845        C846   1.209       .  T
C847        C848   1.207       .  T
C849        C850   1.209       .  T
C851        C852   1.207       .  T
C853        C854   1.205       .  T
C855        C856   1.213       .  T
C857        C858   1.207       .  T
C859        C860   1.206       .  T
C861        C862   1.211       .  T
C863        C864   1.207       .  T
C865        C866   1.211       .  T
C867        C868   1.213       .  T
C869        C870   1.208       .  T
C871        C872   1.206       .  T
C873        C874   1.207       .  T
C875        C876   1.208       .  T
C877        C878   1.207       .  T
C879        C880   1.212       .  T
C881        C882   1.209       .  T
C883        C884   1.207       .  T
C885        C886   1.207       .  T
C887        C888   1.205       .  T
C889        C890   1.209       .  T
C891        C892   1.206       .  T
C893        C894   1.211       .  T
C895        C896   1.208       .  T
C897        C898   1.207       .  T
C899        C900   1.206       .  T
C901        C902   1.206       .  T
C903        C904   1.213       .  T
C905        C906   1.212       .  T
C907        C908   1.207       .  T
C909        C910   1.207       .  T
C911        C912   1.205       .  T
C913        C914   1.211       .  T
C915        C916   1.212       .  T
C917        C918   1.208       .  T
C919        C920   1.206       .  T
C921        C922   1.206       .  T
C923        C924   1.211       .  T
C925        C926   1.207       .  T
C927        C928   1.207       .  T
C929        C930   1.208       .  T
C931        C932   1.207       .  T
C933        C934   1.212       .  T
C935        C936   1.207       .  T
C937        C938   1.208       .  T
C939        C940   1.205       .  T
C941        C942   1.212       .  T
C943        C944   1.209       .  T
C945        C946   1.206       .  T
C947        C948   1.206       .  T
C949        C950   1.208       .  T
C951        C952   1.206       .  T
C953        C954   1.210       .  T
C955        C956   1.206       .  T
C957        C958   1.207       .  T
C959        C960   1.207       .  T
C961        C962   1.211       .  T
C963        C964   1.209       .  T
C965        C966   1.207       .  T
C967        C968   1.206       .  T
C969        C970   1.213       .  T
C971        C972   1.208       .  T
C973        C974   1.207       .  T
C975        C976   1.212       .  T
C977        C978   1.206       .  T
C979        C980   1.207       .  T
C981        C982   1.206       .  T
C983        C984   1.209       .  T
C985        C986   1.207       .  T
C987        C988   1.208       .  T
C989        C990   1.206       .  T
C991        C992   1.207       .  T
C993        C994   1.206       .  T
C995        C996   1.207       .  T
C997        C998   1.207       .  T
C999       C1000   1.205       .  T
C1001      C1002   1.206       .  T
C1003      C1004   1.213       .  T
C1005      C1006   1.208       .  T
C1007      C1008   1.209       .  T
C1009      C1010   1.209       .  T
C1011      C1012   1.206       .  T
C1013      C1014   1.206       .  T
C1015      C1016   1.205       .  T
C1017      C1018   1.212       .  T
C1019      C1020   1.207       .  T
C1021      C1022   1.206       .  T
C1023      C1024   1.212       .  T
C1025      C1026   1.212       .  T
C1027      C1028   1.207       .  T
C1029      C1030   1.207       .  T
C1031      C1032   1.211       .  T
C1033      C1034   1.207       .  T
C1035      C1036   1.207       .  T
C1037      C1038   1.208       .  T
C1039      C1040   1.209       .  T
C1041      C1042   1.206       .  T
C1043      C1044   1.207       .  T
C1045      C1046   1.207       .  T
C1047      C1048   1.212       .  T
C1049      C1050   1.207       .  T
C1051      C1052   1.205       .  T
C1053      C1054   1.208       .  T
C1055      C1056   1.206       .  T
C1057      C1058   1.208       .  T
C1059      C1060   1.207       .  T
C1061      C1062   1.206       .  T
C1063      C1064   1.206       .  T
C1065      C1066   1.212       .  T
C1067      C1068   1.213       .  T
C1069      C1070   1.207       .  T
C1071      C1072   1.206       .  T
C1073      C1074   1.207       .  T
C1075      C1076   1.206       .  T
C1077      C1078   1.212       .  T
C1079      C1080   1.213       .  T
C1081      C1082   1.207       .  T
C1083      C1084   1.207       .  T
C1085      C1086   1.205       .  T
C1087      C1088   1.206       .  T
C1089      C1090   1.212       .  T
C1091      C1092   1.211       .  T
C1093      C1094   1.207       .  T
C1095      C1096   1.206       .  T
C1097      C1098   1.208       .  T
C1099      C1100   1.205       .  T
C1101      C1102   1.212       .  T
C1103      C1104   1.212       .  T
C1105      C1106   1.208       .  T
C1107      C1108   1.208       .  T
C1109      C1110   1.205       .  T
C1111      C1112   1.207       .  T
C1113      C1114   1.211       .  T
C1115      C1116   1.213       .  T
C1117      C1118   1.208       .  T
C1119      C1120   1.207       .  T
C1121      C1122   1.206       .  T
C1123      C1124   1.206       .  T
C1125      C1126   1.212       .  T
C1127      C1128   1.212       .  T
C1129      C1130   1.207       .  T
C1131      C1132   1.207       .  T
C1133      C1134   1.206       .  T
C1135      C1136   1.206       .  T
C1137      C1138   1.211       .  T
C1139      C1140   1.212       .  T
C1141      C1142   1.206       .  T
C1143      C1144   1.206       .  T
C1145      C1146   1.206       .  T
C1147      C1148   1.206       .  T
C1149      C1150   1.212       .  T
C1151      C1152   1.211       .  T
C1153      C1154   1.206       .  T
C1155      C1156   1.207       .  T
C1157      C1158   1.206       .  T
C1159      C1160   1.206       .  T
C1161      C1162   1.211       .  T
C1163      C1164   1.211       .  T
C1165      C1166   1.206       .  T
C1167      C1168   1.207       .  T
