geometry optimzed in LAMMPS
_audit_creation_date              2020-11-30 
_audit_creation_method            'lammps2cif' 
_symmetry_space_group_name_H-M    'P1' 
_symmetry_Int_Tables_number       1 
_symmetry_cell_setting            triclinic 
loop_ 
_symmetry_equiv_pos_as_xyz 
  x,y,z 
_cell_length_a                    47.60349191 
_cell_length_b                    30.88586996897096 
_cell_length_c                    34.78725513558133 
_cell_angle_alpha                 90.07764457114861 
_cell_angle_beta                  80.22992627637427 
_cell_angle_gamma                 81.22076895992329 
loop_ 
_atom_site_label 
_atom_site_type_symbol 
_atom_site_fract_x 
_atom_site_fract_y 
_atom_site_fract_z 
_atom_site_charge 
C1          C  0.03203494  0.98964109  0.26144420     0.30600
C2          C  0.48284345  0.98106239  0.23976353     0.30600
C3          C  0.01167396  0.99046807  0.30053776    -0.05600
C4          C  0.01783701  0.02820749  0.23973378    -0.06400
C5          C  0.02634614  0.94967830  0.23967214    -0.06200
C6          C  0.49138877  0.98442620  0.28006784    -0.05600
C7          C  0.49511658  0.01894427  0.21741694    -0.06400
C8          C  0.50356319  0.94066592  0.22048782    -0.06300
C9          C  0.47825462  0.98495162  0.31879657    -0.31600
N10         N  0.49865978  0.98575836  0.34184698     0.14900
C11         C  0.01473228  0.99047831  0.33913544    -0.31600
H12         H  0.03477495  0.99079917  0.34970914     0.16800
C13         C  0.48565761  0.05361100  0.19539605    -0.30600
N14         N  0.50845349  0.07438585  0.18164435     0.13600
C15         C  0.02581839  0.06410907  0.21955669    -0.30600
C16         C  0.50195744  0.90235337  0.20156584    -0.30900
N17         N  0.02376215  0.88932462  0.20717708     0.14100
H18         H  0.48290944  0.89042063  0.19570089     0.16700
C19         C  0.04232831  0.91241622  0.22035236    -0.30900
H20         H  0.06539379  0.90214815  0.21690184     0.16700
H21         H  0.04709121  0.07348199  0.21480996     0.16700
H22         H  0.45563656  0.98389465  0.32928423     0.16800
H23         H  0.46395734  0.06275126  0.18959686     0.16700
C24         C  0.27567519  0.00522928  0.27459511     0.30600
C25         C  0.21816889  0.00892049  0.29029531     0.30600
C26         C  0.26233350  0.00724735  0.31821827    -0.05600
C27         C  0.25835306  0.04451042  0.25765565    -0.06400
C28         C  0.26434061  0.96587591  0.25780144    -0.06200
C29         C  0.23294887  0.00914921  0.32570691    -0.05600
C30         C  0.22875223  0.04663619  0.26565645    -0.06400
C31         C  0.23462046  0.96766468  0.26633742    -0.06300
C32         C  0.22412397  0.01085294  0.36544265    -0.31600
N33         N  0.24757213  0.01006322  0.38301900     0.14900
C34         C  0.27122350  0.00769390  0.35425804    -0.31600
H35         H  0.29319006  0.00656716  0.35906578     0.16800
C36         C  0.21733494  0.07968539  0.24321278    -0.30600
N37         N  0.23920520  0.09815531  0.22269287     0.13600
C38         C  0.26440079  0.07615951  0.23082826    -0.30600
C39         C  0.22803144  0.93175890  0.24758678    -0.30900
N40         N  0.25282706  0.90820985  0.22773124     0.14100
H41         H  0.20664106  0.92410103  0.24733578     0.16700
C42         C  0.27498604  0.92947709  0.23301986    -0.30900
H43         H  0.29711484  0.91944707  0.21908172     0.16700
H44         H  0.28566431  0.08150500  0.21712471     0.16700
H45         H  0.20210742  0.01217117  0.38023088     0.16800
H46         H  0.19491713  0.08849365  0.24050881     0.16700
C47         C  0.50205346  0.99152735  0.72705696     0.30600
C48         C  0.44536574  0.99411651  0.73017118     0.30600
C49         C  0.49261902  0.99153072  0.68699300    -0.05600
C50         C  0.48963775  0.95243031  0.74701863    -0.06400
C51         C  0.48287657  0.03203381  0.74859106    -0.06200
C52         C  0.46324586  0.99329034  0.68846361    -0.05600
C53         C  0.46044288  0.95413218  0.74921630    -0.06400
C54         C  0.45366073  0.03393636  0.75041239    -0.06300
C55         C  0.45863342  0.99320204  0.65016037    -0.31600
N56         N  0.48443556  0.99024500  0.62563039     0.14900
C57         C  0.50535627  0.98914963  0.64806455    -0.31600
H58         H  0.01969335  0.99738533  0.65435829     0.16800
C59         C  0.45270266  0.91825384  0.77021443    -0.30600
N60         N  0.47681128  0.89460747  0.78048754     0.13600
C61         C  0.49950162  0.91496091  0.76557958    -0.30600
C62         C  0.44060645  0.07259889  0.77133126    -0.30900
N63         N  0.46142595  0.09356515  0.78217985     0.14100
H64         H  0.41774461  0.08487105  0.77783659     0.16700
C65         C  0.48731068  0.06879599  0.76812788    -0.30900
H66         H  0.99930113  0.09016938  0.78750386     0.16700
H67         H  0.01935903  0.91761133  0.78927416     0.16700
H68         H  0.43802952  0.99508349  0.64074472     0.16800
H69         H  0.43103840  0.91073078  0.77806117     0.16700
C70         C  0.24215983  0.00777517  0.76657070     0.30600
C71         C  0.18512034  0.01119620  0.77306231     0.30600
C72         C  0.23137602  0.00601379  0.72737016    -0.05600
C73         C  0.22963020  0.97090399  0.78962412    -0.06400
C74         C  0.22406197  0.04961999  0.78639572    -0.06200
C75         C  0.20195200  0.00695331  0.73072345    -0.05600
C76         C  0.20023840  0.97217339  0.79307731    -0.06400
C77         C  0.19476222  0.05065383  0.79029979    -0.06300
C78         C  0.19584193  0.00703880  0.69321862    -0.31600
N79         N  0.22057276  0.00796740  0.66730084     0.14900
C80         C  0.24240992  0.00768972  0.68799043    -0.31600
H81         H  0.26439395  0.01061989  0.67542427     0.16800
C82         C  0.19341503  0.93672121  0.81509225    -0.30600
N83         N  0.21797576  0.91481093  0.82545141     0.13600
C84         C  0.24021903  0.93558354  0.80978292    -0.30600
C85         C  0.18136715  0.08930223  0.80932384    -0.30900
N86         N  0.20209035  0.11243188  0.81587128     0.14100
H87         H  0.15836846  0.10023599  0.81707090     0.16700
C88         C  0.22828862  0.08892324  0.80160585    -0.30900
H89         H  0.24870067  0.09988239  0.80242728     0.16700
H90         H  0.26249597  0.92611962  0.81313079     0.16700
H91         H  0.17482637  0.00724463  0.68527047     0.16800
H92         H  0.17223352  0.92762170  0.82315621     0.16700
Zr93       Zr  0.44381292  0.43456263  0.01353230     2.17500
O94         O  0.41146474  0.39613636  0.05829209    -0.50700
O95         O  0.44582813  0.37728314  0.96215361    -0.73900
O96         O  0.38933929  0.46188879  0.01330917    -0.80700
O97         O  0.00885159  0.37678886  0.05869471    -0.82500
O98         O  0.38428981  0.53227370  0.99375235    -0.78100
O99         O  0.46453101  0.37489983  0.05096707    -0.89700
O100        O  0.48167628  0.38956052  0.91345706    -0.75700
O101        O  0.44743611  0.47590285  0.95596862    -0.85200
O102        O  0.49432290  0.41890227  0.98322453    -0.81900
O103        O  0.43222826  0.50916718  0.03770199    -0.71600
O104        O  0.47724598  0.45464597  0.05439481    -0.83800
Zr105      Zr  0.01823792  0.55930949  0.99930978     2.26400
Zr106      Zr  0.43555377  0.55069855  0.97960956     2.06300
Zr107      Zr  0.02598553  0.44232242  0.02969523     2.10000
Zr108      Zr  0.49700834  0.45888349  0.92519361     1.78800
O109        O  0.04533663  0.42219538  0.08878678    -0.92600
O110        O  0.47097589  0.47246838  0.87074221    -0.40400
O111        O  0.02830968  0.48572323  0.97291383    -0.77000
O112        O  0.48544386  0.53400880  0.94614912    -0.95700
O113        O  0.46872538  0.57044913  0.01983135    -0.89000
O114        O  0.01502281  0.51539963  0.05555926    -0.91800
C115        C  0.46288738  0.36649087  0.92937610     1.01900
C116        C  0.48900461  0.35784090  0.05969413     1.14800
C117        C  0.37272145  0.49790781  0.00576570     1.05600
O118        O  0.41908373  0.55902571  0.91708140    -0.94000
O119        O  0.45083468  0.61773982  0.95142291    -0.89700
O120        O  0.49808091  0.62058437  0.95523491    -0.82900
C121        C  0.47371872  0.63612061  0.94496077     1.12300
O122        O  0.43150066  0.50890066  0.13250496    -0.96000
Zr123      Zr  0.46538454  0.52882457  0.07721152     1.88900
O124        O  0.01947038  0.61097768  0.05126092    -0.72600
O125        O  0.40311195  0.61350022  0.01248878    -0.51900
O126        O  0.42673555  0.58846937  0.10185797    -0.96600
O127        O  0.48645127  0.49998051  0.13286314    -0.53800
O128        O  0.48836599  0.58953406  0.09181861    -0.73100
C129        C  0.50615745  0.61281983  0.07372456     0.99200
O130        O  0.05235062  0.58153073  0.94522794    -0.62000
O131        O  0.05721269  0.38592772  0.98663711    -0.56800
O132        O  0.07123390  0.53774589  0.00790432    -0.93400
O133        O  0.07619021  0.46641997  0.02505209    -0.91900
O134        O  0.03410076  0.41687438  0.90294416    -0.92200
O135        O  0.02237695  0.49784071  0.87820957    -0.91000
C136        C  0.08750711  0.50228204  0.01690370     1.18100
H137        H  0.49979481  0.38783951  0.97730936     0.34000
H138        H  0.48753217  0.55038038  0.92244335     0.44800
H139        H  0.02865632  0.52100975  0.07207224     0.38400
H140        H  0.41284738  0.51485406  0.05283152     0.34900
H141        H  0.47985414  0.44864289  0.85138614     0.26600
H142        H  0.38815285  0.62058731  0.99591043     0.32600
H143        H  0.43183829  0.59903291  0.12628435     0.38500
H144        H  0.03118528  0.38855062  0.91505008     0.33000
H145        H  0.07414729  0.39963388  0.97539621     0.31800
H146        H  0.05927381  0.39506083  0.08141070     0.33500
H147        H  0.50516149  0.51089654  0.13035627     0.32500
H148        H  0.03210864  0.51969018  0.88946374     0.36500
H149        H  0.06552368  0.55419523  0.93583752     0.29200
H150        H  0.39839326  0.38548505  0.04239130     0.33400
H151        H  0.42414775  0.48339870  0.12279988     0.36300
H152        H  0.06466409  0.36372868  0.00443443     0.28900
H153        H  0.04110490  0.58844795  0.92394863     0.41800
H154        H  0.39815860  0.57007432  0.92378303     0.31800
H155        H  0.45142220  0.46553236  0.88041601     0.39400
H156        H  0.00398298  0.47991427  0.13349793     0.31300
H157        H  0.39297358  0.60172612  0.03651695     0.31400
H158        H  0.39911151  0.41916433  0.07605207     0.31600
Zr159      Zr  0.19169042  0.44503710  0.03042878     2.17500
O160        O  0.16036754  0.41213931  0.08115263    -0.50700
O161        O  0.19083504  0.39555907  0.97598743    -0.73900
O162        O  0.13795387  0.46718653  0.02521492    -0.80700
O163        O  0.26083336  0.37665506  0.05690902    -0.82500
O164        O  0.13209889  0.53927985  0.01083979    -0.78100
O165        O  0.21243061  0.37758528  0.05879359    -0.89700
O166        O  0.22047556  0.41684174  0.92352218    -0.75700
O167        O  0.19242629  0.49292132  0.97710061    -0.85200
O168        O  0.24049273  0.43136643  0.99373667    -0.84900
O169        O  0.18147244  0.51661360  0.06139964    -0.71600
O170        O  0.22757443  0.45911067  0.06936757    -0.83800
Zr171      Zr  0.26669472  0.56463383  0.00978545     2.26400
Zr172      Zr  0.18177205  0.56410030  0.00740058     2.06300
Zr173      Zr  0.27618375  0.44507990  0.03254646     2.10000
Zr174      Zr  0.24044999  0.47979710  0.94092118     1.78800
O175        O  0.29501139  0.42947457  0.09271279    -0.92600
O176        O  0.21275324  0.50878013  0.89119113    -0.40400
O177        O  0.27634221  0.49321181  0.97888018    -0.77000
O178        O  0.23077212  0.55139233  0.96992192    -0.95700
O179        O  0.21775574  0.57782614  0.04589339    -0.89000
O180        O  0.26576407  0.51651214  0.06307773    -0.91800
C181        C  0.20355729  0.39140124  0.94019543     1.01900
C182        C  0.23749157  0.35963972  0.06506122     1.14800
C183        C  0.12121771  0.50292541  0.01776198     1.05600
O184        O  0.16135953  0.59122626  0.95080495    -0.94000
O185        O  0.19638208  0.63401435  0.98693897    -0.89700
O186        O  0.24468705  0.63391505  0.98533941    -0.82900
C187        C  0.21941165  0.65184385  0.97985123     1.12300
O188        O  0.19299048  0.49054639  0.15160762    -0.96000
Zr189      Zr  0.21750484  0.53070784  0.09929426     1.88900
O190        O  0.26665330  0.61649971  0.06386947    -0.72600
O191        O  0.14915262  0.61544083  0.05402291    -0.51900
O192        O  0.17454619  0.57544583  0.13536817    -0.96600
O193        O  0.24467988  0.51211868  0.15200893    -0.53800
O194        O  0.23184925  0.60107936  0.11290402    -0.73100
C195        C  0.25014582  0.62535298  0.09726153     0.99200
O196        O  0.30082500  0.59574658  0.96142091    -0.62000
O197        O  0.30918726  0.38756579  0.99277913    -0.56800
O198        O  0.32139842  0.53722425  0.00721810    -0.93400
O199        O  0.32705601  0.46461044  0.01991553    -0.91900
O200        O  0.28070567  0.42772626  0.90714398    -0.92200
O201        O  0.26681303  0.51205902  0.88481324    -0.91000
C202        C  0.33829934  0.50013556  0.01128910     1.18100
H203        H  0.24528821  0.40127115  0.98414007     0.34000
H204        H  0.23182860  0.57072414  0.94809930     0.44800
H205        H  0.28007233  0.52114507  0.07875982     0.38400
H206        H  0.16243609  0.52072694  0.07770097     0.34900
H207        H  0.21583587  0.48478631  0.87130242     0.26600
H208        H  0.15710235  0.64327937  0.05122319     0.32600
H209        H  0.17159661  0.60203820  0.11980733     0.38500
H210        H  0.29600375  0.42721826  0.92325482     0.33000
H211        H  0.32073936  0.37205608  0.01115830     0.31800
H212        H  0.30996288  0.40331273  0.08617283     0.33500
H213        H  0.26089094  0.52914947  0.14747948     0.32500
H214        H  0.28555115  0.51518007  0.89238408     0.36500
H215        H  0.29154161  0.59978360  0.93799684     0.29200
H216        H  0.14936322  0.39467986  0.06701780     0.33400
H217        H  0.19857140  0.45928512  0.14333200     0.36300
H218        H  0.29694472  0.36634087  0.98633269     0.28900
H219        H  0.30094508  0.62579285  0.97131242     0.41800
H220        H  0.17819296  0.59085048  0.92966005     0.31800
H221        H  0.19226074  0.51054410  0.90349815     0.39400
H222        H  0.25381884  0.48126261  0.14638947     0.31300
H223        H  0.13108623  0.62130744  0.04307539     0.31400
H224        H  0.14596585  0.43679365  0.09381596     0.31600
C225        C  0.20126957  0.75930077  0.92764830     0.16500
C226        C  0.18816699  0.79378674  0.90745646    -0.32500
C227        C  0.20583355  0.82191347  0.88763095     0.20900
C228        C  0.23522577  0.81614389  0.88814616     0.03100
C229        C  0.24831117  0.78183084  0.90863270    -0.22200
C230        C  0.23065859  0.75347568  0.92823387     0.12300
S231        S  0.18378736  0.72026811  0.95138405    -0.05900
C232        C  0.21643312  0.69527586  0.96198103    -0.09300
C233        C  0.23949691  0.71692066  0.94816228    -0.26000
S234        S  0.25297019  0.85328757  0.86169345    -0.03200
C235        C  0.22042316  0.87701024  0.84969164    -0.16600
C236        C  0.19716565  0.85675520  0.86569693    -0.14600
H237        H  0.16526653  0.79804236  0.90667102     0.20800
H238        H  0.27131017  0.77703153  0.90875182     0.16800
H239        H  0.26168647  0.70557412  0.95111328     0.19300
H240        H  0.17510823  0.86666636  0.86157784     0.12700
C241        C  0.20760916  0.29466503  0.86994489     0.16500
C242        C  0.21665793  0.26247314  0.84033466    -0.32500
C243        C  0.20470806  0.22381614  0.84477441     0.20900
C244        C  0.18396962  0.21780920  0.87670970     0.03100
C245        C  0.17460030  0.25040039  0.90617240    -0.22200
C246        C  0.18718330  0.28873948  0.90224059     0.12300
S247        S  0.22167468  0.34184175  0.87137189    -0.05900
C248        C  0.20022818  0.35375527  0.91638267    -0.09300
C249        C  0.18272339  0.32278949  0.92906964    -0.26000
S250        S  0.17296607  0.16766633  0.87715520    -0.03200
C251        C  0.19713326  0.15478615  0.83447512    -0.16600
C252        C  0.21240866  0.18766540  0.82046825    -0.14600
H253        H  0.23308631  0.26672777  0.81558570     0.20800
H254        H  0.15894133  0.24549275  0.93160819     0.16800
H255        H  0.16843149  0.32424693  0.95695893     0.19300
H256        H  0.22853437  0.18492327  0.79421265     0.12700
C257        C  0.45772256  0.73959342  0.88456732     0.16500
C258        C  0.44515938  0.77380725  0.86328873    -0.32500
C259        C  0.46321321  0.80145309  0.84315105     0.20900
C260        C  0.49251848  0.79519815  0.84426059     0.03100
C261        C  0.50507631  0.76107431  0.86568315    -0.22200
C262        C  0.48700122  0.73343485  0.88582415     0.12300
S263        S  0.43959247  0.70195444  0.90995014    -0.05900
C264        C  0.47170708  0.67736693  0.92272453    -0.09300
C265        C  0.49515685  0.69793301  0.90776746    -0.26000
S266        S  0.51075975  0.83196949  0.81773250    -0.03200
C267        C  0.47860577  0.85637966  0.80475291    -0.16600
C268        C  0.45505512  0.83646346  0.82065530    -0.14600
H269        H  0.42228916  0.77849244  0.86227795     0.20800
H270        H  0.02622643  0.77284659  0.89473240     0.16800
H271        H  0.01574827  0.70142419  0.93783671     0.19300
H272        H  0.43312794  0.84689046  0.81617647     0.12700
C273        C  0.47545295  0.26174271  0.86325810     0.16500
C274        C  0.48729259  0.22830062  0.83518025    -0.32500
C275        C  0.47068959  0.19575076  0.82953818     0.20900
C276        C  0.44320547  0.19651921  0.85072496     0.03100
C277        C  0.43138520  0.23000629  0.87945523    -0.22200
C278        C  0.44825114  0.26268003  0.88539114     0.12300
S279        S  0.49239036  0.30424153  0.87291119    -0.05900
C280        C  0.46287382  0.32446459  0.90778226    -0.09300
C281        C  0.44094993  0.29851267  0.91153529    -0.26000
S282        S  0.42669367  0.15371685  0.83837280    -0.03200
C283        C  0.45748760  0.13427344  0.80500330    -0.16600
C284        C  0.47898442  0.16042471  0.80368813    -0.14600
H285        H  0.99177117  0.24976631  0.81446403     0.20800
H286        H  0.41000652  0.23060949  0.89631349     0.16800
H287        H  0.42068292  0.30585311  0.93154259     0.19300
H288        H  0.98453517  0.17134245  0.78811585     0.12700
C289        C  0.36973712  0.97208182  0.72984484     0.16500
C290        C  0.34449899  0.96180519  0.72017546    -0.32500
C291        C  0.31935827  0.97761313  0.74569449     0.20900
C292        C  0.31940820  0.99972276  0.78044661     0.03100
C293        C  0.34486520  0.00699122  0.79150507    -0.22200
C294        C  0.36977400  0.99402875  0.76465011     0.12300
S295        S  0.40171424  0.96304324  0.69968386    -0.05900
C296        C  0.41453937  0.99231386  0.73311127    -0.09300
C297        C  0.39577106  0.00417926  0.76733664    -0.26000
S298        S  0.28668403  0.02113844  0.80483662    -0.03200
C299        C  0.27323230  0.00366941  0.76576667    -0.16600
C300        C  0.29265320  0.97794477  0.73807975    -0.14600
H301        H  0.34418586  0.94590748  0.69249657     0.20800
H302        H  0.34499432  0.02542728  0.81798403     0.16800
H303        H  0.40075529  0.01928495  0.79290407     0.19300
H304        H  0.28777277  0.96111975  0.71333474     0.12700
C305        C  0.10417050  0.02435232  0.79668924     0.16500
C306        C  0.07689097  0.01391740  0.80751380    -0.32500
C307        C  0.05922446  0.02036517  0.77966544     0.20900
C308        C  0.06662443  0.04091865  0.74483406     0.03100
C309        C  0.09239374  0.05726927  0.73661501    -0.22200
C310        C  0.11143723  0.04637916  0.76250105     0.12300
S311        S  0.13216133  0.00145348  0.81739096    -0.05900
C312        C  0.15368175  0.01825187  0.77752115    -0.09300
C313        C  0.13989525  0.04596206  0.75327107    -0.26000
S314        S  0.04407939  0.03857756  0.71247679    -0.03200
C315        C  0.02562217  0.00757958  0.74584377    -0.16600
C316        C  0.03539896  0.00247904  0.78080794    -0.14600
H317        H  0.07145356  0.99509074  0.83324720     0.20800
H318        H  0.09902054  0.07152751  0.70872532     0.16800
H319        H  0.15014216  0.06204742  0.72832237     0.19300
H320        H  0.02500195  0.98804289  0.80666312     0.12700
C321        C  0.26882689  0.80237212  0.16323061     0.16500
C322        C  0.28025360  0.76715696  0.13619812    -0.32500
C323        C  0.26446991  0.73195507  0.13548893     0.20900
C324        C  0.23872856  0.73194654  0.16099480     0.03100
C325        C  0.22722880  0.76716215  0.18748243    -0.22200
C326        C  0.24270347  0.80237566  0.18787992     0.12300
S327        S  0.28455665  0.84789653  0.16971540    -0.05900
C328        C  0.25528057  0.86747134  0.20548681    -0.09300
C329        C  0.23474996  0.83947232  0.21177356    -0.26000
S330        S  0.22284568  0.68661124  0.15656020    -0.03200
C331        C  0.25067524  0.66694169  0.11915118    -0.16600
C332        C  0.27138475  0.69479471  0.11109087    -0.14600
H333        H  0.30052504  0.76720114  0.11663215     0.20800
H334        H  0.20694888  0.76710761  0.20704297     0.16800
H335        H  0.21521102  0.84542234  0.23331238     0.19300
H336        H  0.29031339  0.68838643  0.08853587     0.12700
C337        C  0.25485954  0.25035012  0.11575450     0.16500
C338        C  0.26817990  0.21365469  0.13315855    -0.32500
C339        C  0.25037275  0.18767834  0.15586509     0.20900
C340        C  0.22056687  0.19755340  0.16086874     0.03100
C341        C  0.20719581  0.23405979  0.14304111    -0.22200
C342        C  0.22505512  0.26024806  0.12045444     0.12300
S343        S  0.27279389  0.28721492  0.08912529    -0.05900
C344        C  0.23984475  0.31666415  0.08410288    -0.09300
C345        C  0.21628425  0.29810285  0.10204982    -0.26000
S346        S  0.20292149  0.16273581  0.19085327    -0.03200
C347        C  0.23611688  0.13455032  0.19682396    -0.16600
C348        C  0.25941989  0.15163470  0.17618141    -0.14600
H349        H  0.29145846  0.20615777  0.12977653     0.20800
H350        H  0.18391638  0.24215006  0.14718047     0.16800
H351        H  0.19394602  0.31231040  0.10273708     0.19300
H352        H  0.28187573  0.13909875  0.17640980     0.12700
C353        C  0.25555420  0.00820410  0.49097818     0.16500
C354        C  0.26497736  0.00382328  0.52721018    -0.32500
C355        C  0.24389422  0.00936820  0.56129282     0.20900
C356        C  0.21478161  0.01922825  0.55931183     0.03100
C357        C  0.20542694  0.02423776  0.52323494    -0.22200
C358        C  0.22642470  0.01823818  0.48927971     0.12300
S359        S  0.27739180  0.00101524  0.44605546    -0.05900
C360        C  0.24686028  0.01142964  0.42478372    -0.09300
C361        C  0.22131619  0.02029421  0.45164992    -0.26000
S362        S  0.19247048  0.02305351  0.60358650    -0.03200
C363        C  0.22260017  0.01125762  0.62546471    -0.16600
C364        C  0.24856167  0.00499984  0.59921820    -0.14600
H365        H  0.28769528  0.99572590  0.52875695     0.20800
H366        H  0.18267619  0.03170694  0.52166917     0.16800
H367        H  0.19993930  0.02770000  0.44434758     0.19300
H368        H  0.26968721  0.99686541  0.60723587     0.12700
C369        C  0.03806005  0.78430465  0.14697632     0.16500
C370        C  0.04336741  0.75309045  0.11624319    -0.32500
C371        C  0.02926532  0.71624473  0.12167042     0.20900
C372        C  0.51408853  0.70338504  0.14247854     0.03100
C373        C  0.50997820  0.73394498  0.17301321    -0.22200
C374        C  0.52428580  0.77004113  0.16674624     0.12300
S375        S  0.05059812  0.83349545  0.14513869    -0.05900
C376        C  0.03008737  0.84598065  0.19055954    -0.09300
C377        C  0.52011897  0.80532930  0.19129887    -0.26000
S378        S  0.49623386  0.65989319  0.14348455    -0.03200
C379        C  0.01247061  0.65361953  0.10965165    -0.16600
C380        C  0.03006062  0.68364187  0.09458032    -0.14600
H381        H  0.05703825  0.75802516  0.08889278     0.20800
H382        H  0.49515852  0.73082807  0.19981180     0.16800
H383        H  0.50530885  0.80928008  0.21883541     0.19300
H384        H  0.04209585  0.68235608  0.06513454     0.12700
C385        C  0.01216369  0.19192728  0.15190598     0.16500
C386        C  0.02247376  0.22863631  0.13437666    -0.32500
C387        C  0.00322264  0.25878020  0.11763631     0.20900
C388        C  0.47951566  0.25056140  0.11187371     0.03100
C389        C  0.46886606  0.21472741  0.13039318    -0.22200
C390        C  0.48898306  0.17909156  0.13788257     0.12300
S391        S  0.03218625  0.15200669  0.17404537    -0.05900
C392        C  0.50799343  0.11394633  0.15988359    -0.09300
C393        C  0.48281566  0.14171245  0.15643712    -0.26000
S394        S  0.45853386  0.29625194  0.09931019    -0.03200
C395        C  0.48971071  0.31614491  0.08014686    -0.16600
C396        C  0.00923964  0.29662320  0.09954272    -0.14600
H397        H  0.04456189  0.23357516  0.13393837     0.20800
H398        H  0.44588970  0.21462848  0.13858791     0.16800
H399        H  0.46121540  0.13575820  0.16802094     0.19300
H400        H  0.03005399  0.30758793  0.09608072     0.12700
C401        C  0.35373448  0.02271308  0.26630814     0.16500
C402        C  0.37944821  0.03934222  0.26458321    -0.32500
C403        C  0.40473598  0.00919416  0.25662446     0.20900
C404        C  0.40439762  0.96478677  0.25132697     0.03100
C405        C  0.37877595  0.94808027  0.25441368    -0.22200
C406        C  0.35360891  0.97814412  0.26164492     0.12300
S407        S  0.32072839  0.05354020  0.27386493    -0.05900
C408        C  0.30703209  0.00577943  0.26844537    -0.09300
C409        C  0.32683147  0.96808254  0.26430681    -0.26000
S410        S  0.43702462  0.93364663  0.24091507    -0.03200
C411        C  0.45153229  0.98106300  0.24228994    -0.16600
C412        C  0.43187231  0.01862930  0.25250752    -0.14600
H413        H  0.37976112  0.07407433  0.26836540     0.20800
H414        H  0.37847910  0.91336711  0.25039758     0.16800
H415        H  0.32216195  0.93496684  0.26432691     0.19300
H416        H  0.43720221  0.05093858  0.25684590     0.12700
C417        C  0.10136026  0.97325996  0.30117565     0.16500
C418        C  0.12680309  0.95674368  0.31399766    -0.32500
C419        C  0.14513581  0.98676509  0.31804586     0.20900
C420        C  0.13675259  0.03164267  0.31504452     0.03100
C421        C  0.10960306  0.04840772  0.30747895    -0.22200
C422        C  0.09317132  0.01792471  0.29785944     0.12300
S423        S  0.08068653  0.94166520  0.28274422    -0.05900
C424        C  0.06171834  0.98922427  0.26840067    -0.09300
C425        C  0.07011562  0.02728992  0.27988244    -0.26000
S426        S  0.16404891  0.06115685  0.30779410    -0.03200
C427        C  0.18673975  0.01195533  0.30281516    -0.16600
C428        C  0.17404203  0.97576955  0.31377152    -0.14600
H429        H  0.13408007  0.92174355  0.31404400     0.20800
H430        H  0.10377289  0.08298492  0.30245009     0.16800
H431        H  0.05937685  0.06020667  0.27662016     0.19300
H432        H  0.18526486  0.94250559  0.31343640     0.12700
C433        C  0.47578120  0.98927722  0.45310753     0.16500
C434        C  0.46087893  0.99276294  0.49179788    -0.32500
C435        C  0.47723808  0.98938856  0.52209230     0.20900
C436        C  0.50712688  0.98263087  0.51419140     0.03100
C437        C  0.01158886  0.98289511  0.49525916    -0.22200
C438        C  0.50567040  0.98270734  0.44524932     0.12300
S439        S  0.45993995  0.99288111  0.41227086    -0.05900
C440        C  0.49396177  0.98584265  0.38408708    -0.09300
C441        C  0.00556211  0.98383815  0.42595491    -0.26000
S442        S  0.01332412  0.98498653  0.57418394    -0.03200
C443        C  0.48899422  0.98805160  0.58331448    -0.16600
C444        C  0.46669895  0.99245793  0.56157867    -0.14600
H445        H  0.43752355  0.99810616  0.49802263     0.20800
H446        H  0.03494290  0.97735425  0.48876468     0.16800
H447        H  0.02835421  0.97816599  0.41402775     0.19300
H448        H  0.44394309  0.99797645  0.57374480     0.12700
C449        C  0.53927091  0.98243278  0.23912096     0.30600
C450        C  0.97622664  0.98864668  0.25734919     0.30600
C451        C  0.52021292  0.98502307  0.27963631    -0.05600
C452        C  0.52421415  0.01920329  0.21694168    -0.06400
C453        C  0.53268974  0.94165372  0.22007998    -0.06200
C454        C  0.98312624  0.99006532  0.29894718    -0.05600
C455        C  0.98906978  0.02766271  0.23762189    -0.06400
C456        C  0.99757445  0.94908620  0.23755723    -0.06300
C457        C  0.96891830  0.98993961  0.33736017    -0.31600
N458        N  0.98857710  0.99004020  0.36177677     0.14900
C459        C  0.52440175  0.98586663  0.31792618    -0.31600
H460        H  0.54482032  0.98610482  0.32749266     0.16800
C461        C  0.98007884  0.06346560  0.21646744    -0.30600
N462        N  0.00258508  0.08587220  0.20585234     0.13600
C463        C  0.53215310  0.05290525  0.19405704    -0.30600
C464        C  0.99669184  0.91150642  0.21677502    -0.30900
N465        N  0.52900836  0.88054148  0.19046300     0.14100
H466        H  0.97809599  0.90017731  0.20872902     0.16700
C467        C  0.54818425  0.90429912  0.20090535    -0.30900
H468        H  0.57134110  0.89447347  0.19565686     0.16700
H469        H  0.55362421  0.06137075  0.18705207     0.16700
H470        H  0.94612292  0.98924252  0.34667683     0.16800
H471        H  0.95877404  0.07227828  0.20923714     0.16700
C472        C  0.76916607  0.01170949  0.28485439     0.30600
C473        C  0.71139953  0.01836441  0.30211157     0.30600
C474        C  0.75631105  0.01377725  0.32856792    -0.05600
C475        C  0.75230870  0.05207480  0.26864130    -0.06400
C476        C  0.75671191  0.97349570  0.26823464    -0.06200
C477        C  0.72684750  0.01722929  0.33688117    -0.05600
C478        C  0.72259379  0.05585767  0.27745778    -0.06400
C479        C  0.72689023  0.97681827  0.27738074    -0.06300
C480        C  0.71862223  0.01993370  0.37664395    -0.31600
N481        N  0.74256530  0.01795168  0.39339049     0.14900
C482        C  0.76587615  0.01415936  0.36408321    -0.31600
H483        H  0.78807540  0.01196571  0.36817458     0.16800
C484        C  0.71169763  0.09111571  0.25675843    -0.30600
N485        N  0.73390672  0.10903673  0.23646911     0.13600
C486        C  0.75886699  0.08489024  0.24321923    -0.30600
C487        C  0.71923190  0.94179490  0.25841173    -0.30900
N488        N  0.74345335  0.91753557  0.23792952     0.14100
H489        H  0.69756307  0.93528053  0.25822704     0.16700
C490        C  0.76629627  0.93729861  0.24297197    -0.30900
H491        H  0.78814221  0.92645042  0.22834686     0.16700
H492        H  0.78027028  0.08974535  0.22963092     0.16700
H493        H  0.69662920  0.02323935  0.39193080     0.16800
H494        H  0.68935474  0.10211401  0.25493723     0.16700
C495        C  0.99572866  0.00251104  0.74520829     0.30600
C496        C  0.93953567  0.99907206  0.75096548     0.30600
C497        C  0.98539492  0.00056291  0.70582820    -0.05600
C498        C  0.98568269  0.96228426  0.76624719    -0.06400
C499        C  0.97547904  0.04167295  0.76695244    -0.06200
C500        C  0.95619732  0.99933355  0.70869412    -0.05600
C501        C  0.95673191  0.96113432  0.76941970    -0.06400
C502        C  0.94641456  0.04048872  0.77041517    -0.06300
C503        C  0.95059428  0.99788411  0.67089702    -0.31600
N504        N  0.97576053  0.99688255  0.64532385     0.14900
C505        C  0.99715059  0.99833500  0.66658346    -0.31600
H506        H  0.52820285  0.98644335  0.63690259     0.16800
C507        C  0.95052829  0.92569380  0.79159963    -0.30600
N508        N  0.97529857  0.90470205  0.80189465     0.13600
C509        C  0.99703752  0.92657132  0.78600606    -0.30600
C510        C  0.93240647  0.07870160  0.79124920    -0.30900
N511        N  0.95260068  0.10230916  0.80006539     0.14100
H512        H  0.90937119  0.08923146  0.79858532     0.16700
C513        C  0.97894692  0.07976369  0.78510160    -0.30900
H514        H  0.50802004  0.07644956  0.77237499     0.16700
H515        H  0.52163938  0.90362484  0.76859980     0.16700
H516        H  0.92981056  0.99723627  0.66257316     0.16800
H517        H  0.92928525  0.91695160  0.80052653     0.16700
C518        C  0.73972224  0.01852165  0.77603477     0.30600
C519        C  0.68259888  0.02249044  0.78199813     0.30600
C520        C  0.72953043  0.01312603  0.73699254    -0.05600
C521        C  0.72657881  0.98394784  0.80152392    -0.06400
C522        C  0.72181017  0.06182070  0.79258206    -0.06200
C523        C  0.70005194  0.01444294  0.74012699    -0.05600
C524        C  0.69721296  0.98536884  0.80470402    -0.06400
C525        C  0.69245920  0.06327595  0.79615986    -0.06300
C526        C  0.69438870  0.01232395  0.70263735    -0.31600
N527        N  0.71940889  0.01140686  0.67684258     0.14900
C528        C  0.74107544  0.01216300  0.69766098    -0.31600
H529        H  0.76325523  0.01402584  0.68523314     0.16800
C530        C  0.69048432  0.94917518  0.82573021    -0.30600
N531        N  0.71500259  0.92699309  0.83589543     0.13600
C532        C  0.73718582  0.94815255  0.82107603    -0.30600
C533        C  0.67933192  0.10358299  0.81169221    -0.30900
N534        N  0.70026900  0.12703003  0.81663140     0.14100
H535        H  0.65637168  0.11520306  0.81856529     0.16700
C536        C  0.72638069  0.10220341  0.80465380    -0.30900
H537        H  0.74694573  0.11276796  0.80528226     0.16700
H538        H  0.75957901  0.93768563  0.82337603     0.16700
H539        H  0.67337263  0.01288992  0.69460709     0.16800
H540        H  0.66960247  0.93882508  0.83224818     0.16700
Zr541      Zr  0.94119869  0.44253283  0.02294939     2.17500
O542        O  0.90883385  0.40587862  0.06923465    -0.50700
O543        O  0.94134707  0.38843281  0.97008953    -0.73900
O544        O  0.88693404  0.47177245  0.02263195    -0.80700
O545        O  0.51269619  0.37388486  0.05160756    -0.82500
O546        O  0.88243224  0.54328010  0.00629065    -0.78100
O547        O  0.96076336  0.37880070  0.05702976    -0.89700
O548        O  0.97433126  0.40430287  0.91905599    -0.75700
O549        O  0.94423086  0.48697559  0.96726232    -0.85200
O550        O  0.99109509  0.42595717  0.99012232    -0.81900
O551        O  0.93153777  0.51561200  0.05067319    -0.71600
O552        O  0.97612586  0.45848985  0.06314061    -0.83800
Zr553      Zr  0.51855471  0.55448396  0.98697069     2.26400
Zr554      Zr  0.93422338  0.56030121  0.99453937     2.06300
Zr555      Zr  0.52782037  0.44025991  0.02285505     2.10000
Zr556      Zr  0.99324550  0.46974982  0.93422472     1.78800
O557        O  0.54626505  0.42366924  0.08321471    -0.92600
O558        O  0.96815967  0.49606130  0.88122661    -0.40400
O559        O  0.53073374  0.47980981  0.96385036    -0.77000
O560        O  0.98351543  0.54335936  0.95920452    -0.95700
O561        O  0.96907043  0.57574427  0.03391518    -0.89000
O562        O  0.51459440  0.51416617  0.04529497    -0.91800
C563        C  0.95622972  0.38035554  0.93549690     1.01900
C564        C  0.98498429  0.36093176  0.06604676     1.14800
C565        C  0.87053440  0.50857560  0.01631417     1.05600
O566        O  0.91811157  0.57768395  0.93275854    -0.94000
O567        O  0.95039299  0.62788094  0.96980957    -0.89700
O568        O  0.99814122  0.62854345  0.97207722    -0.82900
C569        C  0.97351116  0.64563099  0.96351284     1.12300
O570        O  0.93537191  0.50776853  0.14593488    -0.96000
Zr571      Zr  0.96637129  0.53149185  0.08943536     1.88900
O572        O  0.51825995  0.60726495  0.03793358    -0.72600
O573        O  0.90418500  0.62115642  0.03349862    -0.51900
O574        O  0.92678248  0.58930844  0.11491642    -0.96600
O575        O  0.98779942  0.50278787  0.14486632    -0.53800
O576        O  0.98901285  0.59305300  0.10447820    -0.73100
C577        C  0.00686137  0.61673334  0.08694286     0.99200
O578        O  0.55398980  0.57841934  0.93549210    -0.62000
O579        O  0.56225064  0.38554609  0.98197663    -0.56800
O580        O  0.57113641  0.53706986  0.99974262    -0.93400
O581        O  0.57677868  0.46746008  0.02112764    -0.91900
O582        O  0.54045098  0.40790481  0.89937192    -0.92200
O583        O  0.52477710  0.48715132  0.86805481    -0.91000
C584        C  0.58754028  0.50352979  0.01191637     1.18100
H585        H  0.99579383  0.39521528  0.98250591     0.34000
H586        H  0.98537458  0.56122065  0.93641221     0.44800
H587        H  0.52765347  0.52148934  0.06202525     0.38400
H588        H  0.91235990  0.52121077  0.06637088     0.34900
H589        H  0.96920830  0.46978713  0.86440020     0.26600
H590        H  0.88951766  0.63266800  0.01752138     0.32600
H591        H  0.93194598  0.60020895  0.13917004     0.38500
H592        H  0.53851305  0.38062166  0.91381875     0.33000
H593        H  0.57269029  0.40268106  0.96185587     0.31800
H594        H  0.56200445  0.39860016  0.07619834     0.33500
H595        H  0.99718681  0.52667688  0.15350476     0.32500
H596        H  0.53564958  0.50780282  0.87880020     0.36500
H597        H  0.56836520  0.55188682  0.92750300     0.29200
H598        H  0.89566807  0.39476552  0.05376156     0.33400
H599        H  0.92657766  0.48418434  0.13553979     0.36300
H600        H  0.57666233  0.37471550  0.99856442     0.28900
H601        H  0.54403937  0.58375610  0.91277344     0.41800
H602        H  0.89983853  0.56572113  0.93421693     0.31800
H603        H  0.94754969  0.50310896  0.89317015     0.39400
H604        H  0.49172680  0.46806752  0.12721330     0.31300
H605        H  0.89334326  0.60733038  0.05575674     0.31400
H606        H  0.89660422  0.42960226  0.08634346     0.31600
Zr607      Zr  0.69087782  0.45198100  0.03425986     2.17500
O608        O  0.65851432  0.41358493  0.07892587    -0.50700
O609        O  0.69264143  0.40322926  0.97884167    -0.73900
O610        O  0.63751753  0.47207188  0.02547302    -0.80700
O611        O  0.75781817  0.38966053  0.07209976    -0.82500
O612        O  0.63119543  0.54306946  0.00805985    -0.78100
O613        O  0.71032926  0.38806889  0.06896052    -0.89700
O614        O  0.72240792  0.42615804  0.92734969    -0.75700
O615        O  0.69372121  0.49815237  0.97963756    -0.85200
O616        O  0.74074469  0.43910281  0.00079112    -0.84900
O617        O  0.67801474  0.52389064  0.06399096    -0.71600
O618        O  0.72444732  0.46878121  0.07574217    -0.83800
Zr619      Zr  0.76399995  0.57445155  0.01688572     2.26400
Zr620      Zr  0.68004483  0.56958120  0.00866761     2.06300
Zr621      Zr  0.77409917  0.45533274  0.04223955     2.10000
Zr622      Zr  0.74291406  0.48673928  0.94715439     1.78800
O623        O  0.79637657  0.43925392  0.09972322    -0.92600
O624        O  0.72027747  0.51411374  0.89235450    -0.40400
O625        O  0.77647872  0.50223209  0.98773272    -0.77000
O626        O  0.73018497  0.55874938  0.97442873    -0.95700
O627        O  0.71404707  0.58619338  0.04939512    -0.89000
O628        O  0.76140464  0.52771669  0.07124095    -0.91800
C629        C  0.70541346  0.40053507  0.94314938     1.01900
C630        C  0.73460323  0.37210174  0.07909485     1.14800
C631        C  0.62072755  0.50643912  0.01539787     1.05600
O632        O  0.65957704  0.59426741  0.95144668    -0.94000
O633        O  0.69348690  0.63962943  0.98760262    -0.89700
O634        O  0.74132906  0.64112184  0.98866576    -0.82900
C635        C  0.71626756  0.65805251  0.98153230     1.12300
O636        O  0.68784543  0.50060815  0.15636056    -0.96000
Zr637      Zr  0.71210633  0.54089900  0.10401978     1.88900
O638        O  0.76039695  0.62780950  0.07095604    -0.72600
O639        O  0.64695123  0.62081280  0.05474637    -0.51900
O640        O  0.66754827  0.58616108  0.13499408    -0.96600
O641        O  0.73717981  0.52465074  0.15908052    -0.53800
O642        O  0.72441739  0.61223331  0.11813438    -0.73100
C643        C  0.74267926  0.63686183  0.10334202     0.99200
O644        O  0.79937325  0.61126916  0.97569949    -0.62000
O645        O  0.80367619  0.39603722  0.00079379    -0.56800
O646        O  0.81898745  0.54758656  0.01558542    -0.93400
O647        O  0.82479413  0.47553877  0.03033289    -0.91900
O648        O  0.78267300  0.43190142  0.91624521    -0.92200
O649        O  0.77375385  0.52063538  0.89666671    -0.91000
C650        C  0.83600254  0.51092181  0.02097705     1.18100
H651        H  0.74612800  0.40893733  0.99169429     0.34000
H652        H  0.73169501  0.57727033  0.95205908     0.44800
H653        H  0.77472096  0.53343123  0.08808883     0.38400
H654        H  0.65861581  0.52746689  0.07899125     0.34900
H655        H  0.72731613  0.49134469  0.87143100     0.26600
H656        H  0.63777960  0.64278503  0.03818118     0.32600
H657        H  0.67158976  0.59556386  0.16046142     0.38500
H658        H  0.77842197  0.42685324  0.88984537     0.33000
H659        H  0.81530995  0.41089896  0.98006973     0.31800
H660        H  0.81330119  0.41657251  0.09060884     0.33500
H661        H  0.75173270  0.54464488  0.15691372     0.32500
H662        H  0.78494031  0.53743759  0.91112807     0.36500
H663        H  0.79321748  0.61330271  0.94988412     0.29200
H664        H  0.64807644  0.39830387  0.06213611     0.33400
H665        H  0.67880039  0.47959165  0.14284736     0.36300
H666        H  0.81772169  0.38223101  0.01683369     0.28900
H667        H  0.79605483  0.64184514  0.98608159     0.41800
H668        H  0.67611644  0.58981869  0.92960116     0.31800
H669        H  0.69960059  0.51180168  0.90041088     0.39400
H670        H  0.74858077  0.49515433  0.15278680     0.31300
H671        H  0.63134348  0.60431110  0.06593165     0.31400
H672        H  0.64377350  0.43685716  0.09315053     0.31600
C673        C  0.69853928  0.76509222  0.92881911     0.16500
C674        C  0.68577061  0.79961586  0.90842604    -0.32500
C675        C  0.70326778  0.82943692  0.89138921     0.20900
C676        C  0.73219391  0.82517740  0.89458787     0.03100
C677        C  0.74497980  0.79063959  0.91506500    -0.22200
C678        C  0.72747828  0.76069430  0.93201534     0.12300
S679        S  0.68115459  0.72474633  0.95020380    -0.05900
C680        C  0.71329810  0.70114167  0.96325180    -0.09300
C681        C  0.73607686  0.72411565  0.95195563    -0.26000
S682        S  0.74968336  0.86480497  0.87182067    -0.03200
C683        C  0.71759798  0.88757310  0.85794198    -0.16600
C684        C  0.69474740  0.86505841  0.87036812    -0.14600
H685        H  0.66322439  0.80288199  0.90568449     0.20800
H686        H  0.76760625  0.78707706  0.91741719     0.16800
H687        H  0.75792341  0.71390471  0.95696761     0.19300
H688        H  0.67303153  0.87406575  0.86457829     0.12700
C689        C  0.70919865  0.30678411  0.87127365     0.16500
C690        C  0.71890137  0.27412833  0.84234138    -0.32500
C691        C  0.70510658  0.23727701  0.84508875     0.20900
C692        C  0.68185743  0.23377293  0.87437847     0.03100
C693        C  0.67196688  0.26673036  0.90322205    -0.22200
C694        C  0.68656433  0.30288354  0.90135585     0.12300
S695        S  0.72516930  0.35161625  0.87491145    -0.05900
C696        C  0.70185434  0.36453444  0.91824875    -0.09300
C697        C  0.68218360  0.33617865  0.92862656    -0.26000
S698        S  0.66867426  0.18567548  0.87320439    -0.03200
C699        C  0.69547657  0.16993699  0.83380065    -0.16600
C700        C  0.71316645  0.20051983  0.82177523    -0.14600
H701        H  0.73719737  0.27650089  0.81964695     0.20800
H702        H  0.65449226  0.26349719  0.92688907     0.16800
H703        H  0.66642242  0.33881819  0.95526140     0.19300
H704        H  0.73122316  0.19569858  0.79782391     0.12700
C705        C  0.95768998  0.74898638  0.90405589     0.16500
C706        C  0.94550932  0.78163193  0.88119484    -0.32500
C707        C  0.96311087  0.81101891  0.86340716     0.20900
C708        C  0.99163250  0.80822744  0.86821639     0.03100
C709        C  0.00388837  0.77539127  0.89113644    -0.22200
C710        C  0.98624655  0.74575646  0.90886547     0.12300
S711        S  0.93993997  0.70967746  0.92688978    -0.05900
C712        C  0.97134126  0.68777694  0.94295558    -0.09300
C713        C  0.99423727  0.71066597  0.93127623    -0.26000
S714        S  0.00923147  0.84721362  0.84386058    -0.03200
C715        C  0.97778799  0.86735415  0.82687089    -0.16600
C716        C  0.95505793  0.84465544  0.83986104    -0.14600
H717        H  0.92327491  0.78380998  0.87717435     0.20800
H718        H  0.52798593  0.75616157  0.86644946     0.16800
H719        H  0.51711493  0.68692587  0.91194903     0.19300
H720        H  0.93370695  0.85199311  0.83245188     0.12700
C721        C  0.96336354  0.27955165  0.86614181     0.16500
C722        C  0.97326848  0.24704784  0.83670702    -0.32500
C723        C  0.95889028  0.21060959  0.83733396     0.20900
C724        C  0.93517578  0.20684293  0.86563302     0.03100
C725        C  0.92525824  0.23956535  0.89545663    -0.22200
C726        C  0.94011016  0.27595520  0.89525639     0.12300
S727        S  0.97878703  0.32522759  0.87034100    -0.05900
C728        C  0.95417820  0.34033935  0.91246484    -0.09300
C729        C  0.93477081  0.31077487  0.92222413    -0.26000
S730        S  0.92105656  0.15932135  0.86066307    -0.03200
C731        C  0.94789314  0.14431353  0.82065826    -0.16600
C732        C  0.96633852  0.17504000  0.81185707    -0.14600
H733        H  0.50865908  0.22777101  0.81825974     0.20800
H734        H  0.90705938  0.23649933  0.91805786     0.16800
H735        H  0.91796547  0.31425844  0.94773486     0.19300
H736        H  0.49976922  0.15400608  0.78473357     0.12700
C737        C  0.86610071  0.96710547  0.75373959     0.16500
C738        C  0.84109976  0.95777474  0.74256706    -0.32500
C739        C  0.81552541  0.97877962  0.76428143     0.20900
C740        C  0.81474930  0.00332564  0.79801864     0.03100
C741        C  0.83966921  0.00817429  0.81173321    -0.22200
C742        C  0.86522704  0.99174332  0.78747046     0.12300
S743        S  0.89832942  0.95835396  0.72416032    -0.05900
C744        C  0.90941288  0.99271786  0.75540019    -0.09300
C745        C  0.89059541  0.00451465  0.78952576    -0.26000
S746        S  0.78252701  0.03233576  0.81639654    -0.03200
C747        C  0.77060161  0.01395124  0.77636905    -0.16600
C748        C  0.78981796  0.98343840  0.75254633    -0.14600
H749        H  0.84157382  0.94066649  0.71518936     0.20800
H750        H  0.83918200  0.02935122  0.83678661     0.16800
H751        H  0.89469290  0.02297087  0.81385562     0.19300
H752        H  0.78540437  0.96578652  0.72792289     0.12700
C753        C  0.60284457  0.02155599  0.79403351     0.16500
C754        C  0.57804516  0.00287893  0.79843864    -0.32500
C755        C  0.56359030  0.00581688  0.76701832     0.20900
C756        C  0.57154076  0.02938872  0.73422406     0.03100
C757        C  0.59470328  0.05213136  0.73160324    -0.22200
C758        C  0.61062575  0.04636603  0.76177018     0.12300
S759        S  0.62890397  0.00609960  0.82055740    -0.05900
C760        C  0.65105166  0.02935854  0.78540684    -0.09300
C761        C  0.63778776  0.05439419  0.75895459    -0.26000
S762        S  0.55143719  0.02674137  0.69884810    -0.03200
C763        C  0.53242961  0.99303806  0.72883274    -0.16600
C764        C  0.54126301  0.98538914  0.76427376    -0.14600
H765        H  0.57228714  0.98242291  0.82292668     0.20800
H766        H  0.60178118  0.06940536  0.70551980     0.16800
H767        H  0.64857148  0.07201388  0.73545168     0.19300
H768        H  0.53006958  0.97001631  0.78893255     0.12700
C769        C  0.75713762  0.81553554  0.16947113     0.16500
C770        C  0.76786885  0.78225150  0.14048742    -0.32500
C771        C  0.75368640  0.74527460  0.14104534     0.20900
C772        C  0.72990828  0.74184816  0.16934807     0.03100
C773        C  0.71906794  0.77516203  0.19803745    -0.22200
C774        C  0.73313410  0.81210729  0.19741100     0.12300
S775        S  0.77167438  0.86236564  0.17465281    -0.05900
C776        C  0.74493652  0.87790672  0.21463323    -0.09300
C777        C  0.72588711  0.84780726  0.22314201    -0.26000
S778        S  0.71578485  0.69467598  0.16561946    -0.03200
C779        C  0.74206069  0.67870322  0.12531117    -0.16600
C780        C  0.76072634  0.70921619  0.11551041    -0.14600
H781        H  0.78656276  0.78497172  0.11859182     0.20800
H782        H  0.70045747  0.77230288  0.22004190     0.16800
H783        H  0.70809137  0.85131738  0.24742742     0.19300
H784        H  0.77840407  0.70532865  0.09105565     0.12700
C785        C  0.75067920  0.26385460  0.13251125     0.16500
C786        C  0.76374449  0.22642971  0.14930105    -0.32500
C787        C  0.74575344  0.20037415  0.17161014     0.20900
C788        C  0.71597373  0.21089830  0.17677085     0.03100
C789        C  0.70283192  0.24811761  0.15947338    -0.22200
C790        C  0.72090687  0.27439530  0.13726392     0.12300
S791        S  0.76897819  0.30044127  0.10599020    -0.05900
C792        C  0.73629266  0.33047344  0.10058453    -0.09300
C793        C  0.71247766  0.31250605  0.11876911    -0.26000
S794        S  0.69809902  0.17578669  0.20616366    -0.03200
C795        C  0.73114533  0.14659026  0.21170356    -0.16600
C796        C  0.75458917  0.16359727  0.19132524    -0.14600
H797        H  0.78700830  0.21835450  0.14565100     0.20800
H798        H  0.67957165  0.25656227  0.16362488     0.16800
H799        H  0.69023166  0.32692560  0.11902711     0.19300
H800        H  0.77698815  0.15042427  0.19128985     0.12700
C801        C  0.75275290  0.01584206  0.50045755     0.16500
C802        C  0.76281902  0.01275813  0.53635312    -0.32500
C803        C  0.74217727  0.01367258  0.57075102     0.20900
C804        C  0.71299685  0.01743190  0.56919850     0.03100
C805        C  0.70304268  0.02077262  0.53362128    -0.22200
C806        C  0.72349649  0.01991622  0.49952408     0.12300
S807        S  0.77381305  0.01422760  0.45504298    -0.05900
C808        C  0.74268771  0.01889388  0.43491251    -0.09300
C809        C  0.71759750  0.02199243  0.46242340    -0.26000
S810        S  0.69117117  0.01756324  0.61333903    -0.03200
C811        C  0.72146492  0.01276274  0.63495639    -0.16600
C812        C  0.74725032  0.01104890  0.60861927    -0.14600
H813        H  0.78564192  0.00953756  0.53740947     0.20800
H814        H  0.68022689  0.02366663  0.53254459     0.16800
H815        H  0.69596120  0.02489606  0.45602039     0.19300
H816        H  0.76846864  0.00803352  0.61652869     0.12700
C817        C  0.54262702  0.77527259  0.13208549     0.16500
C818        C  0.54721969  0.74404069  0.10162327    -0.32500
C819        C  0.53216038  0.70837730  0.10753610     0.20900
C820        C  0.01126727  0.71031022  0.15640441     0.03100
C821        C  0.00611814  0.74120819  0.18706182    -0.22200
C822        C  0.01962791  0.77833500  0.18132524     0.12300
S823        S  0.55549995  0.82403798  0.12923251    -0.05900
C824        C  0.53515291  0.83716422  0.17457399    -0.09300
C825        C  0.01503203  0.81356577  0.20637591    -0.26000
S826        S  0.99522813  0.66472222  0.15704728    -0.03200
C827        C  0.51284702  0.64856540  0.09600741    -0.16600
C828        C  0.53165164  0.67660902  0.08057752    -0.14600
H829        H  0.56074213  0.74840055  0.07399759     0.20800
H830        H  0.99140836  0.73722681  0.21375120     0.16800
H831        H  0.00014062  0.81687808  0.23383718     0.19300
H832        H  0.54354468  0.67463992  0.05101678     0.12700
C833        C  0.51841886  0.17911346  0.12734156     0.16500
C834        C  0.52910031  0.21508064  0.10901370    -0.32500
C835        C  0.50895019  0.25080859  0.10166379     0.20900
C836        C  0.97491366  0.25263855  0.11820840     0.03100
C837        C  0.96457751  0.21580459  0.13569735    -0.22200
C838        C  0.98386988  0.18564074  0.15257394     0.12300
S839        S  0.53928168  0.13322732  0.13974002    -0.05900
C840        C  0.00221096  0.12608822  0.18450068    -0.09300
C841        C  0.97797210  0.14793925  0.17125882    -0.26000
S842        S  0.95500770  0.29328493  0.09651091    -0.03200
C843        C  0.98516244  0.31890810  0.08654932    -0.16600
C844        C  0.51497853  0.28861530  0.08374073    -0.14600
H845        H  0.55207963  0.21524456  0.10094256     0.20800
H846        H  0.94245862  0.21096513  0.13624965     0.16800
H847        H  0.95712051  0.13716119  0.17510757     0.19300
H848        H  0.53654129  0.29536921  0.07292286     0.12700
C849        C  0.84720946  0.02807222  0.27830029     0.16500
C850        C  0.87264197  0.04489295  0.27836575    -0.32500
C851        C  0.89814888  0.01549516  0.26945343     0.20900
C852        C  0.89829043  0.97144675  0.26158501     0.03100
C853        C  0.87288227  0.95445944  0.26231725    -0.22200
C854        C  0.84742373  0.98396602  0.27046192     0.12300
S855        S  0.81415895  0.05835913  0.28767904    -0.05900
C856        C  0.80065199  0.01144206  0.27856443    -0.09300
C857        C  0.82065825  0.97392016  0.27166411    -0.26000
S858        S  0.93120437  0.94106693  0.25200932    -0.03200
C859        C  0.94517918  0.98844629  0.25710194    -0.16600
C860        C  0.92504837  0.02536144  0.26764355    -0.14600
H861        H  0.87256292  0.07928506  0.28461637     0.20800
H862        H  0.87297485  0.92000495  0.25629842     0.16800
H863        H  0.81619953  0.94092846  0.26917622     0.19300
H864        H  0.92986014  0.05743144  0.27425138     0.12700
C865        C  0.60535116  0.97277866  0.28201171     0.16500
C866        C  0.62653939  0.95941615  0.30414962    -0.32500
C867        C  0.64019326  0.99209421  0.31688314     0.20900
C868        C  0.63122305  0.03629217  0.31111863     0.03100
C869        C  0.60778385  0.04968310  0.29295306    -0.22200
C870        C  0.59637008  0.01676270  0.27669138     0.12300
S871        S  0.58923375  0.93820063  0.25874803    -0.05900
C872        C  0.56945515  0.98385914  0.24259270    -0.09300
C873        C  0.57623752  0.02334710  0.25370930    -0.26000
S874        S  0.65622677  0.06885125  0.31340267    -0.03200
C875        C  0.67984773  0.02151916  0.31533477    -0.16600
C876        C  0.66753397  0.98440272  0.32354671    -0.14600
H877        H  0.63463422  0.92496773  0.30662746     0.20800
H878        H  0.60154778  0.08382604  0.28667882     0.16800
H879        H  0.56443110  0.05541936  0.24994908     0.19300
H880        H  0.67943531  0.95194486  0.32567700     0.12700
C881        C  0.96517416  0.99379536  0.47326946     0.16500
C882        C  0.95046084  0.99792382  0.51215584    -0.32500
C883        C  0.96706822  0.99453197  0.54229046     0.20900
C884        C  0.99695380  0.98726925  0.53396037     0.03100
C885        C  0.52202652  0.97907515  0.47551434    -0.22200
C886        C  0.99504625  0.98642022  0.46527684     0.12300
S887        S  0.94931982  0.99771438  0.43225661    -0.05900
C888        C  0.98338498  0.98961965  0.40406527    -0.09300
C889        C  0.51623492  0.98071970  0.40582723    -0.26000
S890        S  0.52299614  0.97981490  0.55496842    -0.03200
C891        C  0.97959396  0.99390186  0.60310160    -0.16600
C892        C  0.95693277  0.99820140  0.58194972    -0.14600
H893        H  0.92711570  0.00385073  0.51863517     0.20800
H894        H  0.54538190  0.97396457  0.46927336     0.16800
H895        H  0.53899893  0.97574306  0.39368758     0.19300
H896        H  0.93427787  0.00421987  0.59466904     0.12700
loop_ 
_geom_bond_atom_site_label_1 
_geom_bond_atom_site_label_2 
_geom_bond_distance 
_geom_bond_site_symmetry_2 
_ccdc_geom_bond_type 
C1            C3   1.528       .  S
C1            C5   1.530       .  S
C1            C4   1.541   1_565  S
C1          C424   1.472       .  S
C2            C6   1.532       .  S
C2            C8   1.542       .  S
C2            C7   1.540   1_565  S
C2          C411   1.478       .  S
C3           C11   1.375       .  A
C3          C454   1.371   1_455  A
C4           C15   1.381       .  A
C4          C455   1.386   1_455  A
C5           C19   1.383       .  A
C5          C456   1.387   1_455  A
C6            C9   1.385       .  A
C6          C451   1.373       .  A
C7           C13   1.381       .  A
C7          C452   1.384       .  A
C8           C16   1.372       .  A
C8          C453   1.389       .  A
C9           N10   1.363       .  A
C9           H22   1.082       .  S
N10         C459   1.360       .  A
N10         C440   1.448       .  S
C11         N458   1.358   1_455  A
C11          H12   1.081       .  S
C13          N14   1.362       .  A
C13          H23   1.081       .  S
N14         C463   1.355       .  A
N14         C392   1.438       .  S
C15         N462   1.362       .  A
C15          H21   1.081       .  S
C16         N465   1.352       .  A
C16          H18   1.079       .  S
N17          C19   1.352       .  A
N17         C464   1.351   1_455  A
N17         C376   1.426       .  S
C19          H20   1.081       .  S
C24          C26   1.540       .  S
C24          C28   1.554   1_545  S
C24          C27   1.536       .  S
C24         C408   1.474       .  S
C25          C29   1.519       .  S
C25          C31   1.550   1_545  S
C25          C30   1.543       .  S
C25         C427   1.474       .  S
C26          C34   1.390       .  A
C26          C29   1.371       .  A
C27          C38   1.381       .  A
C27          C30   1.381       .  A
C28          C42   1.392       .  A
C28          C31   1.388       .  A
C29          C32   1.373       .  A
C30          C36   1.387       .  A
C31          C39   1.388       .  A
C32          N33   1.358       .  A
C32          H45   1.081       .  S
N33          C34   1.366       .  A
N33         C360   1.448       .  S
C34          H35   1.082       .  S
C36          N37   1.360       .  A
C36          H46   1.080       .  S
N37          C38   1.359       .  A
N37         C347   1.446       .  S
C38          H44   1.080       .  S
C39          N40   1.364       .  A
C39          H41   1.081       .  S
N40          C42   1.362       .  A
N40         C328   1.455       .  S
C42          H43   1.080       .  S
C47          C49   1.535       .  S
C47          C51   1.542   1_565  S
C47          C50   1.540       .  S
C47         C763   1.466       .  S
C48          C52   1.551       .  S
C48          C54   1.551   1_565  S
C48          C53   1.540       .  S
C48         C296   1.463       .  S
C49          C57   1.384       .  A
C49          C52   1.383       .  A
C50          C61   1.384       .  A
C50          C53   1.372       .  A
C51          C65   1.384       .  A
C51          C54   1.374       .  A
C52          C55   1.387       .  A
C53          C59   1.390       .  A
C54          C62   1.400       .  A
C55          N56   1.362       .  A
C55          H68   1.079       .  S
N56          C57   1.362       .  A
N56         C443   1.451       .  S
C57         H506   1.081       .  S
H58         C505   1.081   1_455  S
C59          N60   1.365       .  A
C59          H69   1.082       .  S
N60          C61   1.360       .  A
N60         C267   1.453       .  S
C61         H515   1.081       .  S
C62          N63   1.366       .  A
C62          H64   1.081       .  S
N63          C65   1.360       .  A
N63         C283   1.456       .  S
C65         H514   1.082       .  S
H66         C513   1.082       .  S
H67         C509   1.082   1_455  S
C70          C72   1.540       .  S
C70          C74   1.531       .  S
C70          C73   1.531   1_545  S
C70         C299   1.461       .  S
C71          C75   1.548       .  S
C71          C77   1.522       .  S
C71          C76   1.537   1_545  S
C71         C312   1.460       .  S
C72          C80   1.385       .  A
C72          C75   1.381       .  A
C73          C84   1.375       .  A
C73          C76   1.378       .  A
C74          C88   1.379       .  A
C74          C77   1.374       .  A
C75          C78   1.384       .  A
C76          C82   1.385       .  A
C77          C85   1.375       .  A
C78          N79   1.360       .  A
C78          H91   1.081       .  S
N79          C80   1.360       .  A
N79         C363   1.447       .  S
C80          H81   1.081       .  S
C82          N83   1.363       .  A
C82          H92   1.079       .  S
N83          C84   1.357       .  A
N83         C235   1.443       .  S
C84          H90   1.082       .  S
C85          N86   1.351       .  A
C85          H87   1.083       .  S
N86          C88   1.357       .  A
N86         C251   1.427       .  S
C88          H89   1.081       .  S
Zr93         O94   2.440       .  S
Zr93         O95   2.493   1_554  S
Zr93         O96   2.603       .  S
Zr93         O99   2.440       .  S
Zr93        O101   2.372   1_554  S
Zr93        O102   2.431   1_554  S
Zr93        O103   2.402       .  S
Zr93        O104   2.451       .  S
O94         H150   0.990       .  S
O94         H158   0.991       .  S
O95         C115   1.293       .  A
O96         C117   1.317       .  A
O97        Zr107   2.452       .  S
O97         C564   1.291   1_455  A
O98        Zr106   2.557       .  S
O98         C117   1.306   1_556  A
O99         C116   1.288       .  A
O100       Zr108   2.421       .  S
O100        C115   1.281       .  A
O101       Zr106   2.402       .  S
O101       Zr108   2.399       .  S
O102       Zr108   2.363       .  S
O102       Zr555   2.438   1_556  S
O102        H137   0.967       .  S
O103       Zr106   2.391   1_554  S
O103       Zr123   2.403       .  S
O103        H140   0.972       .  S
O104       Zr123   2.376       .  S
O104       Zr555   2.444       .  S
Zr105       O130   2.440       .  S
Zr105       O124   2.423   1_556  S
Zr105       O132   2.577   1_556  S
Zr105       O568   2.465   1_455  S
Zr105       O111   2.398       .  S
Zr105       O114   2.379   1_556  S
Zr105       O560   2.439   1_455  S
Zr105       O561   2.422   1_456  S
Zr106       O125   2.436   1_556  S
Zr106       O118   2.435       .  S
Zr106       O119   2.450       .  S
Zr106       O112   2.439       .  S
Zr106       O113   2.422   1_556  S
Zr107       O109   2.436       .  S
Zr107       O131   2.436   1_554  S
Zr107       O133   2.589       .  S
Zr107       O111   2.385   1_554  S
Zr107       O114   2.377       .  S
Zr107       O550   2.437   1_454  S
Zr107       O552   2.436   1_455  S
Zr108       O110   2.437       .  S
Zr108       O582   2.436       .  S
Zr108       O583   2.434       .  S
Zr108       O112   2.385       .  S
Zr108       O559   2.419       .  S
O109        H146   0.990       .  S
O110        H141   0.990       .  S
O110        H155   0.990       .  S
O111       Zr556   2.419   1_455  S
O112       Zr553   2.442       .  S
O112        H138   0.967       .  S
O113       Zr123   2.372       .  S
O113       Zr553   2.429   1_554  S
O114       Zr571   2.392   1_455  S
O114        H139   0.970       .  S
C115        C280   1.499       .  S
C116        O545   1.288       .  A
C116        C395   1.471       .  S
C117        C202   1.608       .  S
O118        H154   0.990       .  S
O119        C121   1.291       .  A
O120       Zr553   2.470       .  S
O120        C121   1.294       .  A
C121        C264   1.490       .  S
O122       Zr123   2.436       .  S
O122        H151   0.990       .  S
Zr123       O126   2.437       .  S
Zr123       O127   2.437       .  S
Zr123       O128   2.405       .  S
Zr123       O562   2.391       .  S
O124        C577   1.283       .  A
O125        H142   0.990   1_554  S
O125        H157   0.991       .  S
O126        H143   0.990       .  S
O127        H147   0.990       .  S
O127        H604   0.990       .  S
O128        C129   1.279       .  A
C129        O572   1.280       .  A
C129        C827   1.453       .  S
O130        H149   0.990       .  S
O130        H153   0.990       .  S
O131        H145   0.990       .  S
O131        H152   0.990   1_556  S
O132        C136   1.312       .  A
O133        C136   1.315       .  A
O134       Zr556   2.437   1_455  S
O134        H144   0.990       .  S
O135       Zr556   2.435   1_455  S
O135        H148   0.990       .  S
C136        C183   1.613       .  S
H156        O575   0.989   1_455  S
Zr159       O160   2.438       .  S
Zr159       O161   2.442   1_554  S
Zr159       O162   2.582       .  S
Zr159       O165   2.449       .  S
Zr159       O167   2.373   1_554  S
Zr159       O168   2.428   1_554  S
Zr159       O169   2.403       .  S
Zr159       O170   2.440       .  S
O160        H216   0.990       .  S
O160        H224   0.991       .  S
O161        C181   1.286       .  A
O162        C183   1.313       .  A
O163       Zr173   2.446       .  S
O163        C182   1.290       .  A
O164       Zr172   2.579       .  S
O164        C183   1.313       .  A
O165        C182   1.290       .  A
O166       Zr174   2.410       .  S
O166        C181   1.280       .  A
O167       Zr172   2.382   1_556  S
O167       Zr174   2.390       .  S
O168       Zr173   2.426   1_556  S
O168       Zr174   2.371       .  S
O168        H203   0.968       .  S
O169       Zr172   2.384       .  S
O169       Zr189   2.421       .  S
O169        H206   0.974       .  S
O170       Zr173   2.423       .  S
O170       Zr189   2.388       .  S
Zr171       O196   2.439   1_554  S
Zr171       O190   2.469       .  S
Zr171       O198   2.599       .  S
Zr171       O186   2.454   1_554  S
Zr171       O177   2.398   1_554  S
Zr171       O178   2.456   1_554  S
Zr171       O179   2.426       .  S
Zr171       O180   2.376       .  S
Zr172       O191   2.438       .  S
Zr172       O184   2.435   1_554  S
Zr172       O185   2.439   1_554  S
Zr172       O178   2.446   1_554  S
Zr172       O179   2.430       .  S
Zr173       O175   2.434       .  S
Zr173       O197   2.437   1_554  S
Zr173       O199   2.551       .  S
Zr173       O177   2.388   1_554  S
Zr173       O180   2.392       .  S
Zr174       O200   2.435       .  S
Zr174       O201   2.436       .  S
Zr174       O176   2.439       .  S
Zr174       O177   2.411       .  S
Zr174       O178   2.376       .  S
O175        H212   0.990       .  S
O176        H207   0.990       .  S
O176        H221   0.990       .  S
O178        H204   0.966       .  S
O179       Zr189   2.361       .  S
O180       Zr189   2.401       .  S
O180        H205   0.968       .  S
C181        C248   1.470       .  S
C182        C344   1.482       .  S
O184        H220   0.990       .  S
O185        C187   1.288       .  A
O186        C187   1.291       .  A
C187        C232   1.477       .  S
O188       Zr189   2.437       .  S
O188        H217   0.990       .  S
Zr189       O192   2.435       .  S
Zr189       O193   2.439       .  S
Zr189       O194   2.444       .  S
O190        C195   1.290       .  A
O191        H208   0.989       .  S
O191        H223   0.991       .  S
O192        H209   0.990       .  S
O193        H213   0.990       .  S
O193        H222   0.990       .  S
O194        C195   1.287       .  A
C195        C331   1.498       .  S
O196        H215   0.990       .  S
O196        H219   0.990       .  S
O197        H211   0.990   1_556  S
O197        H218   0.990       .  S
O198        C202   1.318       .  A
O199        C202   1.306       .  A
O200        H210   0.990       .  S
O201        H214   0.990       .  S
C225        C230   1.387       .  A
C225        C226   1.402       .  A
C225        S231   1.704       .  A
C226        C227   1.402       .  A
C226        H237   1.083       .  S
C227        C236   1.373       .  A
C227        C228   1.386       .  A
C228        C229   1.404       .  A
C228        S234   1.706       .  A
C229        C230   1.404       .  A
C229        H238   1.083       .  S
C230        C233   1.374       .  A
S231        C232   1.725       .  A
C232        C233   1.389       .  A
C233        H239   1.083       .  S
S234        C235   1.728       .  A
C235        C236   1.389       .  A
C236        H240   1.082       .  S
C241        C246   1.388       .  A
C241        C242   1.397       .  A
C241        S247   1.698       .  A
C242        C243   1.397       .  A
C242        H253   1.083       .  S
C243        C252   1.365       .  A
C243        C244   1.388       .  A
C244        C245   1.403       .  A
C244        S250   1.708       .  A
C245        C246   1.403       .  A
C245        H254   1.083       .  S
C246        C249   1.373       .  A
S247        C248   1.724       .  A
C248        C249   1.387       .  A
C249        H255   1.083       .  S
S250        C251   1.722       .  A
C251        C252   1.380       .  A
C252        H256   1.083       .  S
C257        C262   1.386       .  A
C257        C258   1.408       .  A
C257        S263   1.711       .  A
C258        C259   1.407       .  A
C258        H269   1.083       .  S
C259        C268   1.382       .  A
C259        C260   1.386       .  A
C260        C261   1.409       .  A
C260        S266   1.711       .  A
C261        C262   1.408       .  A
C261        H718   1.083       .  S
C262        C265   1.382       .  A
S263        C264   1.729       .  A
C264        C265   1.393       .  A
C265        H719   1.083       .  S
S266        C267   1.732       .  A
C267        C268   1.394       .  A
C268        H272   1.082       .  S
H270        C709   1.083       .  S
H271        C713   1.083   1_455  S
C273        C278   1.386       .  A
C273        C274   1.404       .  A
C273        S279   1.703       .  A
C274        C275   1.403       .  A
C274        H733   1.083       .  S
C275        C284   1.379       .  A
C275        C276   1.385       .  A
C276        C277   1.419       .  A
C276        S282   1.726       .  A
C277        C278   1.417       .  A
C277        H286   1.082       .  S
C278        C281   1.395       .  A
S279        C280   1.728       .  A
C280        C281   1.399       .  A
C281        H287   1.082       .  S
S282        C283   1.735       .  A
C283        C284   1.392       .  A
C284        H736   1.082       .  S
H285        C722   1.083       .  S
H288        C732   1.083       .  S
C289        C294   1.387       .  A
C289        C290   1.382       .  A
C289        S295   1.680       .  A
C290        C291   1.385       .  A
C290        H301   1.084       .  S
C291        C300   1.340       .  A
C291        C292   1.388       .  A
C292        C293   1.381   1_565  A
C292        S298   1.679   1_565  A
C293        C294   1.385   1_545  A
C293        H302   1.084       .  S
C294        C297   1.340   1_565  A
S295        C296   1.717       .  A
C296        C297   1.374   1_565  A
C297        H303   1.081       .  S
S298        C299   1.717       .  A
C299        C300   1.373   1_545  A
C300        H304   1.081       .  S
C305        C310   1.390       .  A
C305        C306   1.376       .  A
C305        S311   1.683       .  A
C306        C307   1.383       .  A
C306        H317   1.084   1_545  S
C307        C316   1.330       .  A
C307        C308   1.386       .  A
C308        C309   1.383       .  A
C308        S314   1.690       .  A
C309        C310   1.389       .  A
C309        H318   1.084       .  S
C310        C313   1.336       .  A
S311        C312   1.710       .  A
C312        C313   1.376       .  A
C313        H319   1.081       .  S
S314        C315   1.717       .  A
C315        C495   1.459   1_455  S
C315        C316   1.375       .  A
C316        H320   1.082   1_545  S
C321        C326   1.386       .  A
C321        C322   1.416       .  A
C321        S327   1.722       .  A
C322        C323   1.415       .  A
C322        H333   1.083       .  S
C323        C332   1.390       .  A
C323        C324   1.386       .  A
C324        C325   1.406       .  A
C324        S330   1.708       .  A
C325        C326   1.405       .  A
C325        H334   1.083       .  S
C326        C329   1.380       .  A
S327        C328   1.734       .  A
C328        C329   1.392       .  A
C329        H335   1.082       .  S
S330        C331   1.728       .  A
C331        C332   1.399       .  A
C332        H336   1.083       .  S
C337        C342   1.386       .  A
C337        C338   1.402       .  A
C337        S343   1.707       .  A
C338        C339   1.403       .  A
C338        H349   1.083       .  S
C339        C348   1.372       .  A
C339        C340   1.386       .  A
C340        C341   1.406       .  A
C340        S346   1.712       .  A
C341        C342   1.407       .  A
C341        H350   1.083       .  S
C342        C345   1.377       .  A
S343        C344   1.725       .  A
C344        C345   1.391       .  A
C345        H351   1.083       .  S
S346        C347   1.729       .  A
C347        C348   1.391       .  A
C348        H352   1.081       .  S
C353        C358   1.385       .  A
C353        C354   1.408       .  A
C353        S359   1.717       .  A
C354        C355   1.409       .  A
C354        H365   1.083   1_545  S
C355        C364   1.378       .  A
C355        C356   1.386       .  A
C356        C357   1.402       .  A
C356        S362   1.709       .  A
C357        C358   1.404       .  A
C357        H366   1.083       .  S
C358        C361   1.371       .  A
S359        C360   1.728       .  A
C360        C361   1.392       .  A
C361        H367   1.081       .  S
S362        C363   1.727       .  A
C363        C364   1.394       .  A
C364        H368   1.082   1_545  S
C369        C370   1.403       .  A
C369        C822   1.388       .  A
C369        S375   1.713       .  A
C370        C371   1.404       .  A
C370        H381   1.083       .  S
C371        C380   1.370       .  A
C371        C820   1.387       .  A
C372        C373   1.388       .  A
C372        C819   1.388       .  A
C372        S378   1.693       .  A
C373        C374   1.392       .  A
C373        H382   1.083       .  S
C374        C377   1.353       .  A
C374        C817   1.389       .  A
S375        C376   1.720       .  A
C376        C825   1.380       .  A
C377        C824   1.376       .  A
C377        H383   1.083       .  S
S378        C827   1.716       .  A
C379        C380   1.388       .  A
C379        C577   1.468       .  S
C379        S826   1.721   1_455  A
C380        H384   1.083       .  S
C385        C386   1.403       .  A
C385        C838   1.386   1_455  A
C385        S391   1.707       .  A
C386        C387   1.403       .  A
C386        H397   1.083       .  S
C387        C396   1.374       .  A
C387        C836   1.386   1_455  A
C388        C389   1.400       .  A
C388        C835   1.387       .  A
C388        S394   1.703       .  A
C389        C390   1.400       .  A
C389        H398   1.083       .  S
C390        C393   1.370       .  A
C390        C833   1.387       .  A
S391        C840   1.727       .  A
C392        C393   1.386       .  A
C392        S839   1.727       .  A
C393        H399   1.082       .  S
S394        C395   1.723       .  A
C395        C844   1.387       .  A
C396        C843   1.388   1_455  A
C396        H400   1.083       .  S
C401        C406   1.387   1_545  A
C401        C402   1.390       .  A
C401        S407   1.687       .  A
C402        C403   1.392       .  A
C402        H413   1.083       .  S
C403        C412   1.351       .  A
C403        C404   1.387   1_545  A
C404        C405   1.383       .  A
C404        S410   1.679       .  A
C405        C406   1.385       .  A
C405        H414   1.084       .  S
C406        C409   1.346       .  A
S407        C408   1.724       .  A
C408        C409   1.372   1_545  A
C409        H415   1.079       .  S
S410        C411   1.716       .  A
C411        C412   1.379   1_565  A
C412        H416   1.083       .  S
C417        C422   1.386   1_565  A
C417        C418   1.386       .  A
C417        S423   1.684       .  A
C418        C419   1.389       .  A
C418        H429   1.084       .  S
C419        C428   1.349       .  A
C419        C420   1.392   1_565  A
C420        C421   1.385       .  A
C420        S426   1.683       .  A
C421        C422   1.387       .  A
C421        H430   1.084       .  S
C422        C425   1.348       .  A
S423        C424   1.724       .  A
C424        C425   1.378   1_565  A
C425        H431   1.081       .  S
S426        C427   1.715       .  A
C427        C428   1.374   1_545  A
C428        H432   1.082       .  S
C433        C438   1.386       .  A
C433        C434   1.407       .  A
C433        S439   1.714       .  A
C434        C435   1.408       .  A
C434        H445   1.083       .  S
C435        C444   1.378       .  A
C435        C436   1.386       .  A
C436        C885   1.406       .  A
C436        S890   1.713       .  A
C437        C884   1.403   1_455  A
C437        C886   1.405   1_455  A
C437        H446   1.083       .  S
C438        C885   1.407       .  A
C438        C889   1.376       .  A
S439        C440   1.728       .  A
C440        C889   1.394       .  A
C441        C886   1.372   1_455  A
C441        C888   1.394   1_455  A
C441        H447   1.081       .  S
S442        C884   1.710   1_455  A
S442        C891   1.727   1_455  A
C443        C444   1.395       .  A
C443        S890   1.729       .  A
C444        H448   1.081       .  S
C449        C451   1.536       .  S
C449        C453   1.520       .  S
C449        C452   1.530   1_565  S
C449        C872   1.469       .  S
C450        C454   1.539       .  S
C450        C456   1.543       .  S
C450        C455   1.543   1_565  S
C450        C859   1.480       .  S
C451        C459   1.381       .  A
C452        C463   1.371       .  A
C453        C467   1.375       .  A
C454        C457   1.392       .  A
C455        C461   1.383       .  A
C456        C464   1.376       .  A
C457        N458   1.367       .  A
C457        H470   1.082       .  S
N458        C888   1.450       .  S
C459        H460   1.081       .  S
C461        N462   1.362   1_655  A
C461        H471   1.081       .  S
N462        C840   1.447       .  S
C463        H469   1.082       .  S
C464        H466   1.078       .  S
N465        C467   1.349       .  A
N465        C824   1.418       .  S
C467        H468   1.082       .  S
C472        C474   1.537       .  S
C472        C476   1.551   1_545  S
C472        C475   1.538       .  S
C472        C856   1.476       .  S
C473        C477   1.516       .  S
C473        C479   1.557   1_545  S
C473        C478   1.548       .  S
C473        C875   1.482       .  S
C474        C482   1.388       .  A
C474        C477   1.371       .  A
C475        C486   1.383       .  A
C475        C478   1.382       .  A
C476        C490   1.391       .  A
C476        C479   1.389       .  A
C477        C480   1.371       .  A
C478        C484   1.389       .  A
C479        C487   1.392       .  A
C480        N481   1.359       .  A
C480        H493   1.081       .  S
N481        C482   1.364       .  A
N481        C808   1.446       .  S
C482        H483   1.082       .  S
C484        N485   1.360       .  A
C484        H494   1.079       .  S
N485        C486   1.359       .  A
N485        C795   1.449       .  S
C486        H492   1.080       .  S
C487        N488   1.362       .  A
C487        H489   1.082       .  S
N488        C490   1.361       .  A
N488        C776   1.453       .  S
C490        H491   1.080       .  S
C495        C497   1.536       .  S
C495        C499   1.536       .  S
C495        C498   1.540   1_545  S
C496        C500   1.548       .  S
C496        C502   1.550   1_565  S
C496        C501   1.531       .  S
C496        C744   1.459       .  S
C497        C505   1.382   1_545  A
C497        C500   1.383   1_545  A
C498        C509   1.388       .  A
C498        C501   1.370       .  A
C499        C513   1.379       .  A
C499        C502   1.374       .  A
C500        C503   1.387       .  A
C501        C507   1.380       .  A
C502        C510   1.399       .  A
C503        N504   1.362       .  A
C503        H516   1.080       .  S
N504        C505   1.362       .  A
N504        C891   1.450       .  S
C507        N508   1.360       .  A
C507        H517   1.081       .  S
N508        C509   1.361       .  A
N508        C715   1.448       .  S
C510        N511   1.365       .  A
C510        H512   1.081       .  S
N511        C513   1.356       .  A
N511        C731   1.449       .  S
C518        C520   1.535       .  S
C518        C522   1.526       .  S
C518        C521   1.528   1_545  S
C518        C747   1.457       .  S
C519        C523   1.549       .  S
C519        C525   1.519       .  S
C519        C524   1.539   1_545  S
C519        C760   1.469       .  S
C520        C528   1.384       .  A
C520        C523   1.383       .  A
C521        C532   1.374       .  A
C521        C524   1.377       .  A
C522        C536   1.375       .  A
C522        C525   1.375       .  A
C523        C526   1.379       .  A
C524        C530   1.385       .  A
C525        C533   1.371       .  A
C526        N527   1.361       .  A
C526        H539   1.081       .  S
N527        C528   1.360       .  A
N527        C811   1.445       .  S
C528        H529   1.081       .  S
C530        N531   1.361       .  A
C530        H540   1.078       .  S
N531        C532   1.355       .  A
N531        C683   1.440       .  S
C532        H538   1.082       .  S
C533        N534   1.351       .  A
C533        H535   1.083       .  S
N534        C536   1.356       .  A
N534        C699   1.423       .  S
C536        H537   1.082       .  S
Zr541       O542   2.438       .  S
Zr541       O543   2.481   1_554  S
Zr541       O544   2.605       .  S
Zr541       O547   2.443       .  S
Zr541       O549   2.373   1_554  S
Zr541       O550   2.432   1_554  S
Zr541       O551   2.401       .  S
Zr541       O552   2.449       .  S
O542        H598   0.990       .  S
O542        H606   0.990       .  S
O543        C563   1.292       .  A
O544        C565   1.318       .  A
O545       Zr555   2.436       .  S
O546       Zr554   2.564   1_554  S
O546        C565   1.308       .  A
O547        C564   1.289       .  A
O548       Zr556   2.427       .  S
O548        C563   1.283       .  A
O549       Zr554   2.402       .  S
O549       Zr556   2.399       .  S
O550       Zr556   2.367       .  S
O550        H585   0.968       .  S
O551       Zr554   2.390   1_554  S
O551       Zr571   2.411       .  S
O551        H588   0.972       .  S
O552       Zr571   2.381       .  S
Zr553       O578   2.441       .  S
Zr553       O572   2.404   1_556  S
Zr553       O580   2.592       .  S
Zr553       O559   2.394       .  S
Zr553       O562   2.377   1_556  S
Zr554       O573   2.435   1_556  S
Zr554       O566   2.436       .  S
Zr554       O567   2.441       .  S
Zr554       O560   2.436       .  S
Zr554       O561   2.422   1_556  S
Zr555       O557   2.436       .  S
Zr555       O579   2.433   1_554  S
Zr555       O581   2.587       .  S
Zr555       O559   2.385   1_554  S
Zr555       O562   2.368       .  S
Zr556       O558   2.437       .  S
Zr556       O560   2.382       .  S
O557        H594   0.990       .  S
O558        H589   0.990       .  S
O558        H603   0.989       .  S
O560        H586   0.966       .  S
O561       Zr571   2.365       .  S
O562        H587   0.970       .  S
C563        C728   1.497       .  S
C564        C843   1.481       .  S
C565        C650   1.615       .  S
O566        H602   0.989       .  S
O567        C569   1.289       .  A
O568        C569   1.293       .  A
C569        C712   1.484       .  S
O570       Zr571   2.435       .  S
O570        H599   0.990       .  S
Zr571       O574   2.435       .  S
Zr571       O575   2.437       .  S
Zr571       O576   2.422       .  S
O573        H590   0.990       .  S
O573        H605   0.990       .  S
O574        H591   0.990       .  S
O575        H595   0.990       .  S
O576        C577   1.282   1_655  A
O578        H597   0.990       .  S
O578        H601   0.990       .  S
O579        H593   0.990       .  S
O579        H600   0.990       .  S
O580        C584   1.315   1_556  A
O581        C584   1.314       .  A
O582        H592   0.990       .  S
O583        H596   0.990       .  S
C584        C631   1.621       .  S
Zr607       O608   2.438       .  S
Zr607       O609   2.427   1_554  S
Zr607       O610   2.591       .  S
Zr607       O613   2.457       .  S
Zr607       O615   2.375   1_554  S
Zr607       O616   2.433       .  S
Zr607       O617   2.396       .  S
Zr607       O618   2.437       .  S
O608        H664   0.990       .  S
O608        H672   0.991       .  S
O609        C629   1.283       .  A
O610        C631   1.314       .  A
O611       Zr621   2.451       .  S
O611        C630   1.291       .  A
O612       Zr620   2.584       .  S
O612        C631   1.313       .  A
O613        C630   1.291       .  A
O614       Zr622   2.390       .  S
O614        C629   1.276       .  A
O615       Zr620   2.376   1_556  S
O615       Zr622   2.395       .  S
O616       Zr621   2.423       .  S
O616       Zr622   2.376   1_554  S
O616        H651   0.966   1_554  S
O617       Zr620   2.385       .  S
O617       Zr637   2.424       .  S
O617        H654   0.971       .  S
O618       Zr621   2.425       .  S
O618       Zr637   2.382       .  S
Zr619       O644   2.440   1_554  S
Zr619       O638   2.466       .  S
Zr619       O646   2.615       .  S
Zr619       O634   2.461   1_554  S
Zr619       O625   2.396   1_554  S
Zr619       O626   2.460   1_554  S
Zr619       O627   2.427       .  S
Zr619       O628   2.378       .  S
Zr620       O639   2.435       .  S
Zr620       O632   2.435   1_554  S
Zr620       O633   2.428   1_554  S
Zr620       O626   2.453   1_554  S
Zr620       O627   2.433       .  S
Zr621       O623   2.436       .  S
Zr621       O645   2.436       .  S
Zr621       O647   2.551       .  S
Zr621       O625   2.386   1_554  S
Zr621       O628   2.399       .  S
Zr622       O648   2.436       .  S
Zr622       O649   2.436       .  S
Zr622       O624   2.436       .  S
Zr622       O625   2.402       .  S
Zr622       O626   2.367       .  S
O623        H660   0.990       .  S
O624        H655   0.990       .  S
O624        H669   0.990       .  S
O626        H652   0.966       .  S
O627       Zr637   2.359       .  S
O628       Zr637   2.403       .  S
O628        H653   0.968       .  S
C629        C696   1.456       .  S
C630        C792   1.487       .  S
O632        H668   0.990       .  S
O633        C635   1.287       .  A
O634        C635   1.292       .  A
C635        C680   1.473       .  S
O636       Zr637   2.435       .  S
O636        H665   0.990       .  S
Zr637       O640   2.435       .  S
Zr637       O641   2.437       .  S
Zr637       O642   2.435       .  S
O638        C643   1.290       .  A
O639        H656   0.990       .  S
O639        H671   0.991       .  S
O640        H657   0.990       .  S
O641        H661   0.990       .  S
O641        H670   0.990       .  S
O642        C643   1.285       .  A
C643        C779   1.494       .  S
O644        H663   0.990       .  S
O644        H667   0.991       .  S
O645        H659   0.990   1_554  S
O645        H666   0.990       .  S
O646        C650   1.321       .  A
O647        C650   1.306       .  A
O648        H658   0.990       .  S
O649        H662   0.990       .  S
C673        C678   1.387       .  A
C673        C674   1.400       .  A
C673        S679   1.703       .  A
C674        C675   1.401       .  A
C674        H685   1.083       .  S
C675        C684   1.370       .  A
C675        C676   1.387       .  A
C676        C677   1.402       .  A
C676        S682   1.705       .  A
C677        C678   1.403       .  A
C677        H686   1.083       .  S
C678        C681   1.372       .  A
S679        C680   1.725       .  A
C680        C681   1.387       .  A
C681        H687   1.083       .  S
S682        C683   1.727       .  A
C683        C684   1.388       .  A
C684        H688   1.081       .  S
C689        C694   1.388       .  A
C689        C690   1.393       .  A
C689        S695   1.693       .  A
C690        C691   1.394       .  A
C690        H701   1.083       .  S
C691        C700   1.361       .  A
C691        C692   1.389       .  A
C692        C693   1.398       .  A
C692        S698   1.702       .  A
C693        C694   1.398       .  A
C693        H702   1.083       .  S
C694        C697   1.366       .  A
S695        C696   1.720       .  A
C696        C697   1.382       .  A
C697        H703   1.083       .  S
S698        C699   1.720       .  A
C699        C700   1.379       .  A
C700        H704   1.083       .  S
C705        C710   1.386       .  A
C705        C706   1.402       .  A
C705        S711   1.705       .  A
C706        C707   1.402       .  A
C706        H717   1.083       .  S
C707        C716   1.373       .  A
C707        C708   1.386       .  A
C708        C709   1.409   1_655  A
C708        S714   1.714   1_655  A
C709        C710   1.408   1_455  A
C710        C713   1.380       .  A
S711        C712   1.726       .  A
C712        C713   1.392       .  A
S714        C715   1.730   1_455  A
C715        C716   1.390       .  A
C716        H720   1.081       .  S
C721        C726   1.386       .  A
C721        C722   1.403       .  A
C721        S727   1.704       .  A
C722        C723   1.402       .  A
C723        C732   1.375       .  A
C723        C724   1.386       .  A
C724        C725   1.416       .  A
C724        S730   1.725       .  A
C725        C726   1.416       .  A
C725        H734   1.082       .  S
C726        C729   1.391       .  A
S727        C728   1.728       .  A
C728        C729   1.398       .  A
C729        H735   1.082       .  S
S730        C731   1.731       .  A
C731        C732   1.389       .  A
C737        C742   1.389       .  A
C737        C738   1.383       .  A
C737        S743   1.680       .  A
C738        C739   1.385       .  A
C738        H749   1.084       .  S
C739        C748   1.342       .  A
C739        C740   1.388   1_565  A
C740        C741   1.380       .  A
C740        S746   1.676       .  A
C741        C742   1.383   1_545  A
C741        H750   1.084       .  S
C742        C745   1.339   1_565  A
S743        C744   1.717       .  A
C744        C745   1.372   1_565  A
C745        H751   1.081       .  S
S746        C747   1.717       .  A
C747        C748   1.374   1_545  A
C748        H752   1.082       .  S
C753        C758   1.390       .  A
C753        C754   1.377       .  A
C753        S759   1.681       .  A
C754        C755   1.383       .  A
C754        H765   1.084   1_545  S
C755        C764   1.333   1_545  A
C755        C756   1.384       .  A
C756        C757   1.386       .  A
C756        S762   1.691       .  A
C757        C758   1.392       .  A
C757        H766   1.083       .  S
C758        C761   1.341       .  A
S759        C760   1.708       .  A
C760        C761   1.376       .  A
C761        H767   1.083       .  S
S762        C763   1.721   1_545  A
C763        C764   1.378       .  A
C764        H768   1.081       .  S
C769        C774   1.386       .  A
C769        C770   1.413       .  A
C769        S775   1.718       .  A
C770        C771   1.411       .  A
C770        H781   1.083       .  S
C771        C780   1.387       .  A
C771        C772   1.386       .  A
C772        C773   1.408       .  A
C772        S778   1.709       .  A
C773        C774   1.407       .  A
C773        H782   1.083       .  S
C774        C777   1.383       .  A
S775        C776   1.731       .  A
C776        C777   1.393       .  A
C777        H783   1.083       .  S
S778        C779   1.729       .  A
C779        C780   1.396       .  A
C780        H784   1.083       .  S
C785        C790   1.386       .  A
C785        C786   1.403       .  A
C785        S791   1.708       .  A
C786        C787   1.404       .  A
C786        H797   1.083       .  S
C787        C796   1.375       .  A
C787        C788   1.386       .  A
C788        C789   1.409       .  A
C788        S794   1.713       .  A
C789        C790   1.409       .  A
C789        H798   1.083       .  S
C790        C793   1.381       .  A
S791        C792   1.725       .  A
C792        C793   1.394       .  A
C793        H799   1.083       .  S
S794        C795   1.731       .  A
C795        C796   1.391       .  A
C796        H800   1.081       .  S
C801        C806   1.385       .  A
C801        C802   1.410       .  A
C801        S807   1.718       .  A
C802        C803   1.411       .  A
C802        H813   1.083       .  S
C803        C812   1.379       .  A
C803        C804   1.386       .  A
C804        C805   1.397       .  A
C804        S810   1.701       .  A
C805        C806   1.398       .  A
C805        H814   1.083       .  S
C806        C809   1.366       .  A
S807        C808   1.730       .  A
C808        C809   1.389       .  A
C809        H815   1.081       .  S
S810        C811   1.723       .  A
C811        C812   1.395       .  A
C812        H816   1.082       .  S
C817        C818   1.398       .  A
C817        S823   1.707       .  A
C818        C819   1.400       .  A
C818        H829   1.083       .  S
C819        C828   1.362       .  A
C820        C821   1.395       .  A
C820        S826   1.700   1_455  A
C821        C822   1.397       .  A
C821        H830   1.083   1_455  S
C822        C825   1.361       .  A
S823        C824   1.718       .  A
C825        H831   1.083       .  S
C827        C828   1.384       .  A
C828        H832   1.083       .  S
C833        C834   1.401       .  A
C833        S839   1.702       .  A
C834        C835   1.401       .  A
C834        H845   1.083       .  S
C835        C844   1.370       .  A
C836        C837   1.406       .  A
C836        S842   1.711       .  A
C837        C838   1.407       .  A
C837        H846   1.083       .  S
C838        C841   1.377       .  A
C840        C841   1.394   1_455  A
C841        H847   1.082       .  S
S842        C843   1.728       .  A
C844        H848   1.083       .  S
C849        C854   1.387   1_545  A
C849        C850   1.389       .  A
C849        S855   1.683       .  A
C850        C851   1.389       .  A
C850        H861   1.083       .  S
C851        C860   1.352       .  A
C851        C852   1.386   1_545  A
C852        C853   1.386       .  A
C852        S858   1.679       .  A
C853        C854   1.388       .  A
C853        H862   1.083       .  S
C854        C857   1.351       .  A
S855        C856   1.722       .  A
C856        C857   1.376   1_545  A
C857        H863   1.078       .  S
S858        C859   1.718       .  A
C859        C860   1.378   1_565  A
C860        H864   1.083       .  S
C865        C870   1.383   1_565  A
C865        C866   1.385       .  A
C865        S871   1.686       .  A
C866        C867   1.391       .  A
C866        H877   1.084       .  S
C867        C876   1.346       .  A
C867        C868   1.392   1_565  A
C868        C869   1.384       .  A
C868        S874   1.683       .  A
C869        C870   1.386       .  A
C869        H878   1.084       .  S
C870        C873   1.342       .  A
S871        C872   1.723       .  A
C872        C873   1.379   1_565  A
C873        H879   1.081       .  S
S874        C875   1.712       .  A
C875        C876   1.374   1_545  A
C876        H880   1.083       .  S
C881        C886   1.385       .  A
C881        C882   1.410       .  A
C881        S887   1.720       .  A
C882        C883   1.411       .  A
C882        H893   1.083   1_565  S
C883        C892   1.381       .  A
C883        C884   1.386       .  A
C885        H894   1.083       .  S
S887        C888   1.729       .  A
C889        H895   1.082       .  S
C891        C892   1.396       .  A
C892        H896   1.082   1_565  S
