geometry optimzed in LAMMPS
_audit_creation_date              2020-11-30 
_audit_creation_method            'lammps2cif' 
_symmetry_space_group_name_H-M    'P1' 
_symmetry_Int_Tables_number       1 
_symmetry_cell_setting            triclinic 
loop_ 
_symmetry_equiv_pos_as_xyz 
  x,y,z 
_cell_length_a                    63.39157488 
_cell_length_b                    63.67737357244732 
_cell_length_c                    50.52289745264354 
_cell_angle_alpha                 90.46855912864949 
_cell_angle_beta                  90.62457846008486 
_cell_angle_gamma                 122.68645232236251 
loop_ 
_atom_site_label 
_atom_site_type_symbol 
_atom_site_fract_x 
_atom_site_fract_y 
_atom_site_fract_z 
_atom_site_charge 
C1          C  0.52771311  0.62815229  0.33444966     0.85600
C2          C  0.50523970  0.60103024  0.33407379    -0.54600
C3          C  0.50872602  0.58490879  0.32014574     0.08600
C4          C  0.53449562  0.59710555  0.30758078     0.19500
C5          C  0.55031350  0.62706788  0.34424185    -0.55300
C6          C  0.55349696  0.61061854  0.33017506     0.08700
C7          C  0.53267114  0.63414249  0.30451453    -0.54900
C8          C  0.53683670  0.61814754  0.29051351     0.09200
H9          H  0.48773721  0.59501073  0.34393948     0.13700
H10         H  0.53741483  0.58344167  0.29733290    -0.00500
H11         H  0.56227461  0.63783210  0.36101918     0.14000
H12         H  0.53177084  0.64861100  0.29466024     0.13800
C13         C  0.53045228  0.63011902  0.13335340     0.85600
C14         C  0.53446416  0.63314978  0.16369844    -0.54600
C15         C  0.53940672  0.61688494  0.17560196     0.08600
C16         C  0.54011669  0.59909252  0.15542569     0.19500
C17         C  0.55438645  0.63210851  0.12290448    -0.55300
C18         C  0.55946881  0.61618104  0.13507071     0.08700
C19         C  0.51013788  0.60238979  0.12879396    -0.54900
C20         C  0.51482166  0.58624636  0.14050364     0.09200
H21         H  0.53250427  0.64664429  0.17483340     0.13700
H22         H  0.54478826  0.58597895  0.16321652    -0.00500
H23         H  0.56598762  0.64362972  0.10707267     0.14000
H24         H  0.49242889  0.59595305  0.11854892     0.13800
C25         C  0.60860710  0.52379371  0.33152893     0.85600
C26         C  0.61337955  0.53015003  0.30203374    -0.54600
C27         C  0.59636332  0.53389135  0.28979900     0.08600
C28         C  0.57643477  0.53185441  0.30864039     0.19500
C29         C  0.60880211  0.54639447  0.34338705    -0.55300
C30         C  0.59176361  0.55034010  0.33144916     0.08700
C31         C  0.58121601  0.50214258  0.33310064    -0.54900
C32         C  0.56432654  0.50595351  0.32104364     0.09200
H33         H  0.62898518  0.53151781  0.29166788     0.13700
H34         H  0.56305920  0.53558616  0.29888247    -0.00500
H35         H  0.62186292  0.55915170  0.35841041     0.14000
H36         H  0.57566614  0.48438452  0.34191863     0.13800
C37         C  0.62132218  0.53730147  0.13661954     0.85600
C38         C  0.59354051  0.51671853  0.13285284    -0.54600
C39         C  0.57714938  0.52154359  0.14401107     0.08600
C40         C  0.59002545  0.54744657  0.15707746     0.19500
C41         C  0.62324136  0.56061884  0.12469011    -0.55300
C42         C  0.60658794  0.56562691  0.13542611     0.08700
C43         C  0.62523117  0.54335342  0.16655171    -0.54900
C44         C  0.60860388  0.54821118  0.17733749     0.09200
H45         H  0.58734886  0.49850340  0.12428866     0.13700
H46         H  0.57673811  0.55171293  0.16589101    -0.00500
H47         H  0.63653835  0.57252474  0.10997002     0.14000
H48         H  0.63897380  0.54230219  0.17846302     0.13800
C49         C  0.37501119  0.47343386  0.33717121     0.85600
C50         C  0.37040812  0.46914619  0.30688775    -0.54600
C51         C  0.38679036  0.46513073  0.29376808     0.08600
C52         C  0.40574614  0.46457766  0.31275868     0.19500
C53         C  0.37334257  0.44966661  0.34646693    -0.55300
C54         C  0.38962680  0.44519363  0.33408014     0.08700
C55         C  0.40280787  0.49437329  0.33977655    -0.54900
C56         C  0.41882569  0.48983911  0.32732849     0.09200
H57         H  0.35601582  0.46973442  0.29596916     0.13700
H58         H  0.41942067  0.46142767  0.30309699    -0.00500
H59         H  0.36023691  0.43732797  0.36118156     0.14000
H60         H  0.40923157  0.51228684  0.34929861     0.13800
C61         C  0.37541474  0.47658666  0.13407270     0.85600
C62         C  0.40281557  0.49885129  0.13284597    -0.54600
C63         C  0.41959762  0.49607985  0.14681157     0.08600
C64         C  0.40770367  0.47136851  0.16125344     0.19500
C65         C  0.37617799  0.45365798  0.12551138    -0.55300
C66         C  0.39336863  0.45126416  0.13953425     0.08700
C67         C  0.37015468  0.47258909  0.16409406    -0.54900
C68         C  0.38746083  0.47068340  0.17838825     0.09200
H69         H  0.40852187  0.51560571  0.12173573     0.13700
H70         H  0.42159876  0.46920680  0.17237087    -0.00500
H71         H  0.36436714  0.44065009  0.10987170     0.14000
H72         H  0.35438091  0.47114020  0.17385899     0.13800
C73         C  0.45402126  0.36779715  0.33571390     0.85600
C74         C  0.47605302  0.39514241  0.33751760    -0.54600
C75         C  0.47260446  0.41138729  0.32399080     0.08600
C76         C  0.44703471  0.39913746  0.31006337     0.19500
C77         C  0.43090654  0.36809640  0.34475662    -0.55300
C78         C  0.42758777  0.38471702  0.33130179     0.08700
C79         C  0.44959072  0.36259515  0.30536203    -0.54900
C80         C  0.44589716  0.37907058  0.29208270     0.09200
H81         H  0.49384510  0.40097638  0.34721764     0.13700
H82         H  0.44414201  0.41270368  0.29960295    -0.00500
H83         H  0.41874378  0.35678734  0.36060801     0.14000
H84         H  0.45105545  0.34873734  0.29458875     0.13800
C85         C  0.46861489  0.38270962  0.13475882     0.85600
C86         C  0.46486399  0.37693044  0.16469901    -0.54600
C87         C  0.46171063  0.39316644  0.17938582     0.08600
C88         C  0.46252788  0.41370562  0.16291329     0.19500
C89         C  0.44553952  0.38347762  0.12627467    -0.55300
C90         C  0.44248182  0.39966366  0.14119839     0.08700
C91         C  0.49080384  0.40994621  0.13437066    -0.54900
C92         C  0.48765151  0.42607777  0.14882171     0.09200
H93         H  0.46501046  0.36189011  0.17420177     0.13700
H94         H  0.45966232  0.42693152  0.17422802    -0.00500
H95         H  0.43303160  0.37253538  0.10989568     0.14000
H96         H  0.50813878  0.41594247  0.12415953     0.13800
C97         C  0.89724347  0.53179445  0.33210562     0.85600
C98         C  0.90410559  0.51207840  0.33318526    -0.54600
C99         C  0.92528958  0.51807837  0.32002734     0.08600
C100        C  0.93746993  0.54316842  0.30617391     0.19500
C101        C  0.92164216  0.55585406  0.34277747    -0.55300
C102        C  0.94255690  0.56164243  0.32866670     0.08700
C103        C  0.89619875  0.53691622  0.30272494    -0.54900
C104        C  0.91671059  0.54200472  0.28920335     0.09200
H105        H  0.89354506  0.49512213  0.34456244     0.13700
H106        H  0.95457303  0.54817643  0.29512257    -0.00500
H107        H  0.92295847  0.56647993  0.36025778     0.14000
H108        H  0.88013060  0.53567886  0.29312415     0.13800
C109        C  0.90933204  0.53903478  0.13278576     0.85600
C110        C  0.90676857  0.54606654  0.16102914    -0.54600
C111        C  0.92670717  0.55301611  0.17714574     0.08600
C112        C  0.94854393  0.55363331  0.16343877     0.19500
C113        C  0.93354256  0.56285063  0.12292782    -0.55300
C114        C  0.95413238  0.57057446  0.13938138     0.08700
C115        C  0.91724229  0.52013881  0.13513169    -0.54900
C116        C  0.93755522  0.52758838  0.15111406     0.09200
H117        H  0.88950084  0.54351643  0.16845605     0.13700
H118        H  0.96487770  0.55921540  0.17674081    -0.00500
H119        H  0.93488806  0.57213778  0.10456919     0.14000
H120        H  0.90723906  0.50200710  0.12516129     0.13800
C121        C  0.08835853  0.61376022  0.33058054     0.85600
C122        C  0.09070886  0.62059966  0.30105693    -0.54600
C123        C  0.06941020  0.60601527  0.28594164     0.08600
C124        C  0.04743624  0.58554717  0.30202059     0.19500
C125        C  0.06579906  0.61414511  0.34035077    -0.55300
C126        C  0.04433777  0.59920625  0.32580227     0.08700
C127        C  0.07921573  0.58587978  0.32914177    -0.54900
C128        C  0.05809832  0.57108625  0.31415595     0.09200
H129        H  0.10833804  0.63370058  0.29192761     0.13700
H130        H  0.03001406  0.57329890  0.29025826    -0.00500
H131        H  0.06645978  0.62451545  0.35784756     0.14000
H132        H  0.09027331  0.57881385  0.33683788     0.13800
C133        C  0.10034803  0.62739784  0.12937777     0.85600
C134        C  0.09202728  0.60005603  0.12418649    -0.54600
C135        C  0.06996609  0.58265570  0.13514920     0.08600
C136        C  0.05812154  0.59403292  0.15118712     0.19500
C137        C  0.07793659  0.62896632  0.12075630    -0.55300
C138        C  0.05588607  0.61134552  0.13176706     0.08700
C139        C  0.10083609  0.62903623  0.15995961    -0.54900
C140        C  0.07875132  0.61143296  0.17136854     0.09200
H141        H  0.10357016  0.59492027  0.11379721     0.13700
H142        H  0.04013917  0.57982092  0.16030920    -0.00500
H143        H  0.07949220  0.64298307  0.10738369     0.14000
H144        H  0.11705553  0.64152569  0.17208342     0.13800
C145        C  0.90178479  0.39203631  0.33858756     0.85600
C146        C  0.90400498  0.38868399  0.30881011    -0.54600
C147        C  0.92701558  0.40520282  0.29813378     0.08600
C148        C  0.94573887  0.42368464  0.31927205     0.19500
C149        C  0.92326800  0.39030687  0.35113935    -0.55300
C150        C  0.94613533  0.40696421  0.34057141     0.08700
C151        C  0.91047480  0.41937111  0.34242172    -0.54900
C152        C  0.93315772  0.43590999  0.33222337     0.09200
H153        H  0.88803458  0.37441281  0.29728099     0.13700
H154        H  0.96484071  0.43739201  0.31304702    -0.00500
H155        H  0.92108033  0.37700704  0.36580632     0.14000
H156        H  0.89885453  0.42519297  0.35134442     0.13800
C157        C  0.89768246  0.39507598  0.14367349     0.85600
C158        C  0.90853184  0.42329351  0.14376634    -0.54600
C159        C  0.93131493  0.43752250  0.15582094     0.08600
C160        C  0.94222711  0.42251501  0.16572666     0.19500
C161        C  0.91827823  0.39330083  0.12955864    -0.55300
C162        C  0.94137204  0.40736355  0.14157848     0.08700
C163        C  0.89898567  0.38917980  0.17283622    -0.54900
C164        C  0.92238672  0.40297327  0.18441887     0.09200
H165        H  0.89890866  0.43159696  0.13529774     0.13700
H166        H  0.96146631  0.43441527  0.17413470    -0.00500
H167        H  0.91560010  0.38327927  0.11114199     0.14000
H168        H  0.88230896  0.37605218  0.18354837     0.13800
C169        C  0.09239219  0.47355567  0.32400095     0.85600
C170        C  0.08849828  0.49522390  0.31916801    -0.54600
C171        C  0.06712281  0.48873421  0.30546304     0.08600
C172        C  0.05091396  0.46097136  0.29836667     0.19500
C173        C  0.06838086  0.45455930  0.33868912    -0.55300
C174        C  0.04678797  0.44789672  0.32514897     0.08700
C175        C  0.08967328  0.46189388  0.29650828    -0.54900
C176        C  0.06852312  0.45611195  0.28250858     0.09200
H177        H  0.10141246  0.51417764  0.32644391     0.13700
H178        H  0.03329629  0.45579826  0.28769037    -0.00500
H179        H  0.06788343  0.44849596  0.35872059     0.14000
H180        H  0.10491395  0.46140352  0.28755183     0.13800
C181        C  0.08871962  0.47118463  0.12405574     0.85600
C182        C  0.08989346  0.46624532  0.15379598    -0.54600
C183        C  0.07109172  0.46468187  0.16832795     0.08600
C184        C  0.05213587  0.46725158  0.15196107     0.19500
C185        C  0.06230026  0.44938727  0.11500926    -0.55300
C186        C  0.04331009  0.44773539  0.12955757     0.08700
C187        C  0.08700463  0.49438222  0.12408421    -0.54900
C188        C  0.06782518  0.49232992  0.13826048     0.09200
H189        H  0.10400689  0.46426765  0.16337361     0.13700
H190        H  0.03644482  0.46541652  0.16352630    -0.00500
H191        H  0.05890727  0.43690360  0.09846650     0.14000
H192        H  0.09990046  0.51116017  0.11330712     0.13800
In193      In  0.44233549  0.67154045  0.05173579     1.36900
C194        C  0.44500478  0.67533997  0.99950329     0.76700
O195        O  0.41812621  0.63071932  0.04166836    -0.61700
O196        O  0.40409704  0.64525726  0.06934734    -0.52600
C197        C  0.47418004  0.66614034  0.08131976     0.69400
O198        O  0.47479031  0.66679680  0.05646285    -0.47500
C199        C  0.44689072  0.71514473  0.06039560     0.74100
O200        O  0.46328564  0.67932332  0.01378448    -0.59300
O201        O  0.42750892  0.69468522  0.06647894    -0.49400
O202        O  0.42554281  0.66972717  0.01191696    -0.55800
C203        C  0.40025038  0.62656125  0.05613384     0.84300
O204        O  0.45804540  0.66954292  0.09120221    -0.57700
O205        O  0.46462220  0.71345494  0.05230932    -0.61000
In206      In  0.44682602  0.77925022  0.05025010     1.36900
C207        C  0.44786160  0.73866392  0.05978938     0.76700
O208        O  0.40903074  0.76664401  0.06734379    -0.61700
O209        O  0.42511925  0.79691986  0.04083073    -0.52600
C210        C  0.48150441  0.81704365  0.08099597     0.69400
O211        O  0.46121860  0.79885231  0.08937427    -0.47500
C212        C  0.44694199  0.77789432  0.99787327     0.74100
O213        O  0.46634074  0.75840343  0.05088939    -0.59300
O214        O  0.42957011  0.76074884  0.01114371    -0.49400
O215        O  0.42948336  0.74018916  0.06565280    -0.55800
C216        C  0.40645418  0.78198354  0.05437993     0.84300
O217        O  0.48456986  0.81540576  0.05665731    -0.57700
O218        O  0.46459096  0.79553062  0.01134604    -0.61000
In219      In  0.44739278  0.67519452  0.41988322     1.36900
C220        C  0.44960191  0.71751292  0.40991651     0.76700
O221        O  0.41117166  0.64831803  0.39750703    -0.61700
O222        O  0.42263944  0.63471260  0.42906677    -0.52600
C223        C  0.48113747  0.66996222  0.39447309     0.69400
O224        O  0.46673293  0.67491870  0.38265432    -0.47500
C225        C  0.44773066  0.67801490  0.47226843     0.74100
O226        O  0.46842495  0.71728981  0.41774783    -0.59300
O227        O  0.42864266  0.67186262  0.45824921    -0.49400
O228        O  0.43030059  0.69624102  0.40533286    -0.55800
C229        C  0.40605887  0.63014853  0.41197348     0.84300
O230        O  0.47876066  0.66861806  0.41919014    -0.57700
O231        O  0.46714584  0.68398726  0.45952450    -0.61000
In232      In  0.44566094  0.78001107  0.41659277     1.36900
C233        C  0.44927988  0.74040384  0.40896640     0.76700
O234        O  0.46447307  0.79620275  0.45597196    -0.61700
O235        O  0.42810683  0.76319295  0.45553298    -0.52600
C236        C  0.48147290  0.82002879  0.39120861     0.69400
O237        O  0.46439201  0.80068056  0.37909015    -0.47500
C238        C  0.40407742  0.78021182  0.40677086     0.74100
O239        O  0.46762948  0.76139859  0.41635263    -0.59300
O240        O  0.42161316  0.79584396  0.42191450    -0.49400
O241        O  0.42982787  0.74020849  0.40314872    -0.55800
C242        C  0.44658851  0.77959064  0.46914004     0.84300
O243        O  0.48028697  0.81838660  0.41597791    -0.57700
O244        O  0.40829252  0.76521731  0.39529709    -0.61000
In245      In  0.22399077  0.55654228  0.04538764     1.36900
C246        C  0.26430434  0.55453274  0.05497644     0.76700
O247        O  0.21311479  0.53724864  0.00574222    -0.61700
O248        O  0.24054888  0.57622088  0.00742418    -0.52600
C249        C  0.18217273  0.52081218  0.06851523     0.69400
O250        O  0.20244473  0.53459088  0.08134889    -0.47500
C251        C  0.22235001  0.59715294  0.05318305     0.74100
O252        O  0.24443563  0.53662300  0.04464248    -0.59300
O253        O  0.20857074  0.58004786  0.03674057    -0.49400
O254        O  0.26292295  0.57265963  0.06250461    -0.55800
C255        C  0.22745767  0.55688897  0.99325500     0.84300
O256        O  0.18375095  0.52520556  0.04418168    -0.57700
O257        O  0.23625057  0.59299016  0.06727692    -0.61000
In258      In  0.33174909  0.55986147  0.04875180     1.36900
C259        C  0.28781157  0.55522594  0.05561257     0.76700
O260        O  0.35752250  0.59757209  0.06891494    -0.61700
O261        O  0.37276087  0.58467969  0.04078661    -0.52600
C262        C  0.33575753  0.52593130  0.07541142     0.69400
O263        O  0.33050907  0.54028405  0.08667786    -0.47500
C264        C  0.32987375  0.55955475  0.99654822     0.74100
O265        O  0.28966239  0.53825224  0.04525684    -0.59300
O266        O  0.33491725  0.57833786  0.01030282    -0.49400
O267        O  0.30816234  0.57374495  0.06438519    -0.55800
C268        C  0.37638296  0.60221804  0.05581335     0.84300
O269        O  0.33840803  0.52887711  0.05083943    -0.57700
O270        O  0.32499688  0.54062108  0.00945027    -0.61000
In271      In  0.22801274  0.55824393  0.41057342     1.36900
C272        C  0.26910768  0.55751673  0.40303178     0.76700
O273        O  0.24197250  0.59620282  0.39351261    -0.61700
O274        O  0.20975857  0.57931167  0.41767535    -0.52600
C275        C  0.18894786  0.52655443  0.37944842     0.69400
O276        O  0.20996474  0.54288904  0.37039805    -0.47500
C277        C  0.22815613  0.55672219  0.46319757     0.74100
O278        O  0.24881634  0.53862361  0.41043565    -0.59300
O279        O  0.24210710  0.57644730  0.45067474    -0.49400
O280        O  0.26774647  0.57591931  0.39713936    -0.55800
C281        C  0.22523759  0.59799214  0.40455370     0.84300
O282        O  0.18868414  0.52516083  0.40428363    -0.57700
O283        O  0.21453459  0.53757945  0.44887304    -0.61000
In284      In  0.33684798  0.56454023  0.41577760     1.36900
C285        C  0.33224274  0.56314692  0.46787351     0.76700
O286        O  0.37753539  0.58890602  0.42656129    -0.61700
O287        O  0.36368004  0.60157041  0.39639904    -0.52600
C288        C  0.34121509  0.53026517  0.39055385     0.69400
O289        O  0.34287218  0.53329015  0.41526283    -0.47500
C290        C  0.29300337  0.55902929  0.40427442     0.74100
O291        O  0.32848303  0.54477140  0.45422002    -0.59300
O292        O  0.31366869  0.57877016  0.39948480    -0.49400
O293        O  0.33766292  0.58218977  0.45485574    -0.55800
C294        C  0.38199946  0.60610572  0.41101165     0.84300
O295        O  0.33750692  0.54523241  0.37831088    -0.57700
O296        O  0.29473069  0.54152377  0.41287576    -0.61000
In297      In  0.33835186  0.77555632  0.04483149     1.36900
C298        C  0.33688956  0.77397800  0.99232675     0.76700
O299        O  0.37962773  0.79445122  0.03739816    -0.61700
O300        O  0.36380738  0.76612290  0.06607012    -0.52600
C301        C  0.33800923  0.81229162  0.07028542     0.69400
O302        O  0.33463123  0.80844921  0.04574907    -0.47500
C303        C  0.29473575  0.73340711  0.05373849     0.74100
O304        O  0.34205026  0.79307576  0.00552396    -0.59300
O305        O  0.31539823  0.73625290  0.06008253    -0.49400
O306        O  0.33262332  0.75561031  0.00590568    -0.55800
C307        C  0.38289580  0.78121280  0.05312834     0.84300
O308        O  0.34110754  0.79683048  0.08234620    -0.57700
O309        O  0.29632764  0.75250665  0.04453037    -0.61000
In310      In  0.22869376  0.66491854  0.04683602     1.36900
C311        C  0.22887806  0.66682838  0.99459828     0.76700
O312        O  0.25071215  0.70668635  0.04662268    -0.61700
O313        O  0.26918846  0.68928412  0.06045624    -0.52600
C314        C  0.18988902  0.66066220  0.07196666     0.69400
O315        O  0.19117849  0.65957811  0.04729637    -0.47500
C316        C  0.22329127  0.62071767  0.05350456     0.74100
O317        O  0.21507431  0.67094440  0.00846738    -0.59300
O318        O  0.23761180  0.63920661  0.06843221    -0.49400
O319        O  0.24300312  0.66214189  0.00741521    -0.55800
C320        C  0.27089252  0.70928521  0.05438937     0.84300
O321        O  0.20918662  0.66472885  0.08440448    -0.57700
O322        O  0.21084326  0.62452028  0.03689121    -0.61000
In323      In  0.33493424  0.77249515  0.40868932     1.36900
C324        C  0.33562818  0.77308629  0.46111086     0.76700
O325        O  0.29337801  0.74953749  0.41345659    -0.61700
O326        O  0.30951819  0.73405183  0.39017937    -0.52600
C327        C  0.33450949  0.80758279  0.38035781     0.69400
O328        O  0.33053327  0.80486037  0.40478004    -0.47500
C329        C  0.38001548  0.77855706  0.40470102     0.74100
O330        O  0.33833838  0.79092157  0.44762432    -0.59300
O331        O  0.36072611  0.76079306  0.39316086    -0.49400
O332        O  0.33245367  0.75470800  0.44782776    -0.55800
C333        C  0.29005135  0.73097341  0.40059001     0.84300
O334        O  0.33807990  0.79169406  0.36992153    -0.57700
O335        O  0.37657261  0.79399573  0.41629855    -0.61000
In336      In  0.22565707  0.66247650  0.41045047     1.36900
C337        C  0.23037043  0.66675418  0.46261779     0.76700
O338        O  0.20872804  0.62206457  0.41747426    -0.61700
O339        O  0.24021261  0.64014760  0.39238206    -0.52600
C340        C  0.18289225  0.65176003  0.38676584     0.69400
O341        O  0.18531219  0.64977976  0.41112339    -0.47500
C342        C  0.26595203  0.70701182  0.40058447     0.74100
O343        O  0.21692394  0.67218006  0.44963095    -0.59300
O344        O  0.26275948  0.68727302  0.39059242    -0.49400
O345        O  0.24222194  0.65999430  0.44892359    -0.55800
C346        C  0.22449494  0.62050456  0.40418667     0.84300
O347        O  0.20296018  0.66049452  0.37409109    -0.57700
O348        O  0.24752573  0.70416934  0.41308458    -0.61000
In349      In  0.55131779  0.33808105  0.05119823     1.36900
C350        C  0.54860386  0.33295580  0.99883945     0.76700
O351        O  0.57474802  0.37922454  0.04361662    -0.61700
O352        O  0.58910638  0.36488270  0.07108215    -0.52600
C353        C  0.51658728  0.34185301  0.07640190     0.69400
O354        O  0.51965453  0.34385620  0.05182584    -0.47500
C355        C  0.54935863  0.29596045  0.06096489     0.74100
O356        O  0.53047645  0.32939987  0.01242847    -0.59300
O357        O  0.56851928  0.31719758  0.06607999    -0.49400
O358        O  0.56804967  0.33872477  0.01196739    -0.55800
C359        C  0.59273623  0.38354894  0.05850976     0.84300
O360        O  0.53101667  0.33705075  0.08854126    -0.57700
O361        O  0.53051872  0.29614799  0.05314654    -0.61000
In362      In  0.55193474  0.23284216  0.05309974     1.36900
C363        C  0.54969096  0.27309351  0.06125829     0.76700
O364        O  0.58785373  0.24247732  0.07518093    -0.61700
O365        O  0.57485015  0.21730906  0.04236030    -0.52600
C366        C  0.51614719  0.19313595  0.07851356     0.69400
O367        O  0.53311117  0.21249180  0.09068906    -0.47500
C368        C  0.55065793  0.23368252  0.49815114     0.74100
O369        O  0.53098583  0.25223409  0.05418795    -0.59300
O370        O  0.56920039  0.25018547  0.51162381    -0.49400
O371        O  0.56920764  0.27306224  0.06616181    -0.55800
C372        C  0.59187115  0.22950810  0.05946670     0.84300
O373        O  0.51760467  0.19458402  0.05373758    -0.57700
O374        O  0.53193770  0.21843315  0.01405062    -0.61000
In375      In  0.54623343  0.33279328  0.41816543     1.36900
C376        C  0.54438350  0.29037846  0.40888573     0.76700
O377        O  0.58457839  0.35847982  0.40095035    -0.61700
O378        O  0.56836903  0.37459402  0.42302162    -0.52600
C379        C  0.50926905  0.33355444  0.39256480     0.69400
O380        O  0.52488190  0.33056007  0.38063716    -0.47500
C381        C  0.54818601  0.33252716  0.47070854     0.74100
O382        O  0.52829819  0.29139289  0.42220903    -0.59300
O383        O  0.56730898  0.34040964  0.45677237    -0.49400
O384        O  0.56044766  0.31067839  0.39845643    -0.55800
C385        C  0.58726783  0.37797235  0.41107398     0.84300
O386        O  0.51256444  0.33575108  0.41724923    -0.57700
O387        O  0.52799873  0.32424256  0.45784740    -0.61000
In388      In  0.55115468  0.22983731  0.41693812     1.36900
C389        C  0.54561377  0.26797740  0.40820336     0.76700
O390        O  0.53227049  0.21589334  0.45583386    -0.61700
O391        O  0.56906598  0.24857694  0.45589411    -0.52600
C392        C  0.51755904  0.18704050  0.39225998     0.69400
O393        O  0.53130161  0.20690327  0.37971533    -0.47500
C394        C  0.59310033  0.22999068  0.41023869     0.74100
O395        O  0.52859331  0.24756168  0.41752980    -0.59300
O396        O  0.57746626  0.21811409  0.42798156    -0.49400
O397        O  0.56466806  0.26819741  0.40085384    -0.55800
C398        C  0.55055782  0.23286841  0.46923670     0.84300
O399        O  0.52005514  0.18976811  0.41694563    -0.57700
O400        O  0.58721792  0.24168977  0.39495076    -0.61000
In401      In  0.76638839  0.34785595  0.05456516     1.36900
C402        C  0.76763394  0.34512322  0.49857796     0.76700
O403        O  0.74628232  0.30615741  0.05390969    -0.61700
O404        O  0.72651278  0.32237087  0.06738003    -0.52600
C405        C  0.80292632  0.35515244  0.08743094     0.69400
O406        O  0.80210814  0.34949094  0.06335137    -0.47500
C407        C  0.76967428  0.39121914  0.05840709     0.74100
O408        O  0.78492405  0.34817337  0.01678434    -0.59300
O409        O  0.75372161  0.37238269  0.07114786    -0.49400
O410        O  0.74940025  0.34422304  0.01448132    -0.55800
C411        C  0.72577642  0.30277257  0.06125449     0.84300
O412        O  0.78413610  0.35529703  0.09500680    -0.57700
O413        O  0.78429552  0.38805993  0.04482229    -0.61000
In414      In  0.65948301  0.23554095  0.04969493     1.36900
C415        C  0.66318957  0.23839748  0.99757506     0.76700
O416        O  0.61925067  0.21962781  0.03976239    -0.61700
O417        O  0.63355486  0.24211494  0.07453544    -0.52600
C418        C  0.65765825  0.19654483  0.07152971     0.69400
O419        O  0.64946913  0.19620511  0.04867832    -0.47500
C420        C  0.70244659  0.27823912  0.05994249     0.74100
O421        O  0.66596774  0.22338513  0.01081705    -0.59300
O422        O  0.68163074  0.27469913  0.06638531    -0.49400
O423        O  0.65925610  0.25268130  0.01099757    -0.55800
C424        C  0.61528926  0.23002060  0.05856095     0.84300
O425        O  0.66627497  0.21698221  0.08387849    -0.57700
O426        O  0.70139163  0.25950355  0.04999077    -0.61000
In427      In  0.76945445  0.34659685  0.41730253     1.36900
C428        C  0.76823375  0.34526995  0.46971567     0.76700
O429        O  0.78755648  0.38800511  0.42367891    -0.61700
O430        O  0.75457070  0.36876127  0.39978938    -0.52600
C431        C  0.80627662  0.35003882  0.38874646     0.69400
O432        O  0.80625095  0.34970149  0.41361191    -0.47500
C433        C  0.72920438  0.30155145  0.40780256     0.74100
O434        O  0.78624295  0.34738988  0.45697218    -0.59300
O435        O  0.73116805  0.32104154  0.39931449    -0.49400
O436        O  0.75086291  0.34368910  0.45571434    -0.55800
C437        C  0.77096901  0.38900696  0.41087380     0.84300
O438        O  0.78720405  0.34833900  0.37840117    -0.57700
O439        O  0.74849105  0.30487898  0.41938763    -0.61000
In440      In  0.66133001  0.23581560  0.41424339     1.36900
C441        C  0.66418050  0.23749926  0.46633350     0.76700
O442        O  0.70324873  0.25838203  0.41735666    -0.61700
O443        O  0.68540846  0.27454417  0.39837707    -0.52600
C444        C  0.65937384  0.19831600  0.38795130     0.69400
O445        O  0.65800309  0.19923694  0.41264656    -0.47500
C446        C  0.61672438  0.23084750  0.40923542     0.74100
O447        O  0.66301087  0.22015444  0.45285154    -0.59300
O448        O  0.63427395  0.24398408  0.39353542    -0.49400
O449        O  0.66473485  0.25453317  0.45316356    -0.55800
C450        C  0.70552679  0.27737616  0.40700724     0.84300
O451        O  0.66151884  0.21677962  0.37620780    -0.57700
O452        O  0.62147943  0.21920076  0.42565617    -0.61000
In453      In  0.76993105  0.45575805  0.05139507     1.36900
C454        C  0.72968451  0.45760601  0.06093621     0.76700
O455        O  0.78065219  0.47498039  0.01221526    -0.61700
O456        O  0.75329638  0.43596738  0.01305396    -0.52600
C457        C  0.81208724  0.48877487  0.07762257     0.69400
O458        O  0.79177056  0.47401636  0.08908830    -0.47500
C459        C  0.77053504  0.41465564  0.05774055     0.74100
O460        O  0.74963182  0.47597900  0.05215121    -0.59300
O461        O  0.78494829  0.43190179  0.04244126    -0.49400
O462        O  0.73118546  0.43939162  0.06731642    -0.55800
C463        C  0.76617992  0.45507732  0.99932836     0.84300
O464        O  0.81032297  0.48762132  0.05279110    -0.57700
O465        O  0.75632815  0.41876645  0.07099487    -0.61000
In466      In  0.66117855  0.45020467  0.05270150     1.36900
C467        C  0.70584153  0.45627957  0.06087117     0.76700
O468        O  0.63633681  0.41173338  0.07013993    -0.61700
O469        O  0.61939464  0.42624574  0.04654933    -0.52600
C470        C  0.65909960  0.48408598  0.08236169     0.69400
O471        O  0.66105961  0.46704785  0.09222271    -0.47500
C472        C  0.66097664  0.44901686  0.99998305     0.74100
O473        O  0.70340852  0.47294288  0.05094073    -0.59300
O474        O  0.65919857  0.43182145  0.01386232    -0.49400
O475        O  0.68568962  0.43729232  0.06835674    -0.55800
C476        C  0.61660517  0.40792457  0.05907824     0.84300
O477        O  0.65854501  0.48383229  0.05746352    -0.57700
O478        O  0.66342123  0.46721274  0.01299069    -0.61000
In479      In  0.76479585  0.45028724  0.41631278     1.36900
C480        C  0.72317449  0.45008911  0.40747789     0.76700
O481        O  0.75269512  0.41239643  0.39896510    -0.61700
O482        O  0.78484409  0.43065321  0.42425872    -0.52600
C483        C  0.80268996  0.48365575  0.38734608     0.69400
O484        O  0.78252765  0.46574408  0.37721280    -0.47500
C485        C  0.76551125  0.45364366  0.46846587     0.74100
O486        O  0.74380901  0.46960038  0.41370009    -0.59300
O487        O  0.75076563  0.43368612  0.45588096    -0.49400
O488        O  0.72422809  0.43113744  0.40345160    -0.55800
C489        C  0.76976439  0.41140687  0.41081564     0.84300
O490        O  0.80265593  0.48510837  0.41216021    -0.57700
O491        O  0.77944501  0.47222969  0.45439299    -0.61000
In492      In  0.65601159  0.44443260  0.41790810     1.36900
C493        C  0.66003855  0.44765586  0.47054536     0.76700
O494        O  0.61441267  0.42075985  0.42425114    -0.61700
O495        O  0.63057000  0.40567817  0.40043498    -0.52600
C496        C  0.65162307  0.47660928  0.38855372     0.69400
O497        O  0.65324238  0.47784216  0.41340191    -0.47500
C498        C  0.69944074  0.44888519  0.40797917     0.74100
O499        O  0.66108328  0.46451891  0.45669226    -0.59300
O500        O  0.67859052  0.42890405  0.40386562    -0.49400
O501        O  0.65718524  0.42931554  0.45756682    -0.55800
C502        C  0.61117686  0.40222789  0.41130879     0.84300
O503        O  0.65302856  0.45915499  0.37859459    -0.57700
O504        O  0.69812237  0.46712128  0.41516620    -0.61000
C505        C  0.53381546  0.91338145  0.33697712     0.85600
C506        C  0.53700467  0.91282718  0.30676574    -0.54600
C507        C  0.53729116  0.93155748  0.29359814     0.08600
C508        C  0.53579317  0.95015492  0.31168932     0.19500
C509        C  0.55632977  0.93964700  0.34547845    -0.55300
C510        C  0.55702849  0.95880004  0.33225626     0.08700
C511        C  0.51053177  0.91476994  0.33961025    -0.54900
C512        C  0.51166354  0.93418592  0.32723557     0.09200
H513        H  0.53921353  0.89943361  0.29600546     0.13700
H514        H  0.53661934  0.96571696  0.30090468    -0.00500
H515        H  0.57036252  0.94281054  0.36022100     0.14000
H516        H  0.49382985  0.90058000  0.34965767     0.13800
C517        C  0.53397987  0.91128460  0.13675165     0.85600
C518        C  0.50976317  0.91135438  0.13629550    -0.54600
C519        C  0.51106192  0.93073169  0.14934549     0.08600
C520        C  0.53682080  0.94878479  0.16228366     0.19500
C521        C  0.55340018  0.93722342  0.12529716    -0.55300
C522        C  0.55513463  0.95678056  0.13916980     0.08700
C523        C  0.54130392  0.91338625  0.16619075    -0.54900
C524        C  0.54221440  0.93247975  0.17965057     0.09200
H525        H  0.49289832  0.89736624  0.12553412     0.13700
H526        H  0.53787890  0.96461619  0.17307340    -0.00500
H527        H  0.56301718  0.94041697  0.10687649     0.14000
H528        H  0.54342899  0.89954959  0.17611694     0.13800
C529        C  0.62528752  0.10770919  0.32925806     0.85600
C530        C  0.59787865  0.10021277  0.33064221    -0.54600
C531        C  0.58100957  0.07909608  0.31691051     0.08600
C532        C  0.59327096  0.06755578  0.30174035     0.19500
C533        C  0.62497735  0.08426795  0.33733436    -0.55300
C534        C  0.60822370  0.06334004  0.32292223     0.08700
C535        C  0.63048899  0.10953784  0.29937314    -0.54900
C536        C  0.61319235  0.08904769  0.28487269     0.09200
H537        H  0.59221022  0.11095181  0.34187486     0.13700
H538        H  0.57965126  0.05030870  0.29046477    -0.00500
H539        H  0.63623161  0.08397763  0.35349324     0.14000
H540        H  0.64598911  0.12534894  0.28974947     0.13800
C541        C  0.62123637  0.10619242  0.12634230     0.85600
C542        C  0.62825934  0.10772799  0.15598339    -0.54600
C543        C  0.61044918  0.08830504  0.17047987     0.08600
C544        C  0.58715556  0.06896717  0.15418458     0.19500
C545        C  0.61577592  0.08044273  0.11729994    -0.55300
C546        C  0.59748029  0.06097747  0.13145919     0.08700
C547        C  0.59568792  0.10346573  0.12667713    -0.54900
C548        C  0.57791456  0.08419127  0.14098999     0.09200
H549        H  0.64530627  0.12262989  0.16547653     0.13700
H550        H  0.57251180  0.05313451  0.16579652    -0.00500
H551        H  0.62518591  0.07778536  0.10102431     0.14000
H552        H  0.59191458  0.11600572  0.11624409     0.13800
C553        C  0.37214796  0.89949061  0.32556454     0.85600
C554        C  0.39851102  0.90439875  0.32870885    -0.54600
C555        C  0.41700469  0.92514555  0.31665586     0.08600
C556        C  0.40750402  0.93945565  0.30188997     0.19500
C557        C  0.37454583  0.92392605  0.33480049    -0.55300
C558        C  0.39343341  0.94477603  0.32277244     0.08700
C559        C  0.36815346  0.89945065  0.29537303    -0.54900
C560        C  0.38699138  0.91991959  0.28291475     0.09200
H561        H  0.40223338  0.89210635  0.33974132     0.13700
H562        H  0.42251533  0.95655320  0.29216245    -0.00500
H563        H  0.36263099  0.92484063  0.34938960     0.14000
H564        H  0.35195643  0.88491211  0.28435414     0.13800
C565        C  0.37506308  0.90466543  0.12490669     0.85600
C566        C  0.37012886  0.90468918  0.15473008    -0.54600
C567        C  0.38895919  0.92463795  0.16864847     0.08600
C568        C  0.41082169  0.94345360  0.15143243     0.19500
C569        C  0.37944948  0.92990770  0.11586590    -0.55300
C570        C  0.39863463  0.95020668  0.12933197     0.08700
C571        C  0.40080661  0.90780499  0.12404990    -0.54900
C572        C  0.41947573  0.92804215  0.13740542     0.09200
H573        H  0.35358568  0.89040209  0.16473160     0.13700
H574        H  0.42608229  0.95978430  0.16271752    -0.00500
H575        H  0.36848131  0.93168074  0.10046248     0.14000
H576        H  0.40385767  0.89447796  0.11412773     0.13800
C577        C  0.46835778  0.09460121  0.33287525     0.85600
C578        C  0.46709450  0.09695394  0.30270740    -0.54600
C579        C  0.46437249  0.07734247  0.28849166     0.08600
C580        C  0.46319162  0.05691154  0.30547703     0.19500
C581        C  0.44473395  0.06911983  0.33965507    -0.55300
C582        C  0.44205397  0.04953101  0.32510299     0.08700
C583        C  0.49019293  0.09063536  0.33608974    -0.54900
C584        C  0.48729351  0.07063115  0.32251858     0.09200
H585        H  0.47021947  0.11328921  0.29271912     0.13700
H586        H  0.46095804  0.04092465  0.29383671    -0.00500
H587        H  0.43212134  0.06666711  0.35541110     0.14000
H588        H  0.50716113  0.10334890  0.34744088     0.13800
C589        C  0.46324453  0.10003665  0.13221443     0.85600
C590        C  0.48644715  0.09858595  0.12912523    -0.54600
C591        C  0.48511225  0.07898800  0.14112390     0.08600
C592        C  0.46102166  0.06278512  0.15646137     0.19500
C593        C  0.44084720  0.07393778  0.12307945    -0.55300
C594        C  0.43993601  0.05443901  0.13571507     0.08700
C595        C  0.46028152  0.10023369  0.16260726    -0.54900
C596        C  0.45939622  0.08086321  0.17503624     0.09200
H597        H  0.50292761  0.11228910  0.11838408     0.13700
H598        H  0.46040249  0.04712719  0.16682520    -0.00500
H599        H  0.42819322  0.07109536  0.10685480     0.14000
H600        H  0.45922423  0.11404102  0.17397887     0.13800
C601        C  0.46467655  0.07719369  0.25928565    -0.07000
C602        C  0.44390610  0.05776398  0.24543056    -0.18100
C603        C  0.44138034  0.05880589  0.21802932     0.10200
C604        C  0.46030560  0.07934191  0.20407646    -0.06900
C605        C  0.48160523  0.09824125  0.21777217    -0.18100
C606        C  0.48415937  0.09724124  0.24512599     0.10200
S607        S  0.41298596  0.03427796  0.20218897    -0.33100
S608        S  0.51305358  0.12160700  0.26062320    -0.33100
H609        H  0.51358560  0.10649151  0.28037477     0.28300
H610        H  0.41134263  0.04995587  0.18402419     0.28300
H611        H  0.42904932  0.04226262  0.25612791     0.18800
H612        H  0.49660751  0.11362505  0.20695542     0.18900
C613        C  0.40724755  0.97653229  0.12379968    -0.07000
C614        C  0.39109237  0.98492426  0.12816896    -0.18100
C615        C  0.40027110  0.01059502  0.12942959     0.10200
C616        C  0.42616506  0.02815302  0.12586059    -0.06900
C617        C  0.44135005  0.01941148  0.11842798    -0.18100
C618        C  0.43244814  0.99409578  0.11767240     0.10200
S619        S  0.37829416  0.01912408  0.13798836    -0.33100
S620        S  0.45417984  0.98497207  0.11023564    -0.33100
H621        H  0.47536901  0.00883444  0.10546556     0.28300
H622        H  0.39242185  0.04392066  0.12992290     0.28300
H623        H  0.37160119  0.97149366  0.13252033     0.18800
H624        H  0.46107831  0.03260730  0.11560635     0.18900
C625        C  0.40096486  0.97060927  0.32949049    -0.07000
C626        C  0.39136069  0.98185090  0.31396027    -0.18100
C627        C  0.40248063  0.00780939  0.31472008     0.10200
C628        C  0.42399307  0.02288030  0.33080018    -0.06900
C629        C  0.43225979  0.01141218  0.34780883    -0.18100
C630        C  0.42101204  0.98554441  0.34741857     0.10200
S631        S  0.38943300  0.02080338  0.29361761    -0.33100
S632        S  0.43498911  0.97326735  0.36827068    -0.33100
H633        H  0.41324927  0.94950472  0.37077587     0.28300
H634        H  0.39819854  0.04254927  0.30906797     0.28300
H635        H  0.37600828  0.97051905  0.30013445     0.18800
H636        H  0.44878939  0.02278785  0.36008362     0.18900
C637        C  0.38854845  0.92165642  0.25366766    -0.07000
C638        C  0.39310773  0.94340315  0.24137972    -0.18100
C639        C  0.39344554  0.94508865  0.21368819     0.10200
C640        C  0.38970532  0.92489139  0.19798521    -0.06900
C641        C  0.38648417  0.90376289  0.21037977    -0.18100
C642        C  0.38602096  0.90193356  0.23791872     0.10200
S643        S  0.39731228  0.97271766  0.19950787    -0.33100
S644        S  0.38354622  0.87484607  0.25254427    -0.33100
H645        H  0.38553988  0.86413224  0.22901078     0.28300
H646        H  0.37933680  0.95979183  0.17921254     0.28300
H647        H  0.39552546  0.95878013  0.25338227     0.18800
H648        H  0.38440915  0.88861888  0.19828914     0.18900
C649        C  0.55200903  0.07850581  0.14163523    -0.07000
C650        C  0.54075420  0.07808297  0.11744271    -0.18100
C651        C  0.51793040  0.07627737  0.11636529     0.10200
C652        C  0.50587934  0.07497844  0.14024324    -0.06900
C653        C  0.51613963  0.07363167  0.16436928    -0.18100
C654        C  0.53942547  0.07599147  0.16537758     0.10200
S655        S  0.50616860  0.07671443  0.08376910    -0.33100
S656        S  0.55408417  0.07903027  0.19705864    -0.33100
H657        H  0.53785541  0.08286001  0.21209662     0.28300
H658        H  0.48109245  0.06641266  0.09039862     0.28300
H659        H  0.55027256  0.07990943  0.09906954     0.18800
H660        H  0.50685064  0.07274658  0.18259027     0.18900
C661        C  0.55374561  0.06927182  0.31800576    -0.07000
C662        C  0.54398739  0.06905854  0.34286676    -0.18100
C663        C  0.52110015  0.06709210  0.34526323     0.10200
C664        C  0.50732454  0.06520493  0.32214180    -0.06900
C665        C  0.51538481  0.06198201  0.29753195    -0.18100
C666        C  0.53849127  0.06400130  0.29521179     0.10200
S667        S  0.51157329  0.06849791  0.37845755    -0.33100
S668        S  0.54915347  0.06257605  0.26281487    -0.33100
H669        H  0.52560029  0.05128461  0.24995697     0.28300
H670        H  0.48606499  0.05758585  0.37249869     0.28300
H671        H  0.55507244  0.07196856  0.36062088     0.18800
H672        H  0.50476278  0.06021827  0.27979429     0.18900
C673        C  0.61227010  0.08897445  0.25554709    -0.07000
C674        C  0.60732818  0.06764731  0.24152849    -0.18100
C675        C  0.60729331  0.06712881  0.21385794     0.10200
C676        C  0.61209128  0.08822071  0.19972009    -0.06900
C677        C  0.61664498  0.10940500  0.21371178    -0.18100
C678        C  0.61599890  0.10976272  0.24126444     0.10200
S679        S  0.60237257  0.03962442  0.19768210    -0.33100
S680        S  0.61749543  0.13628484  0.25651716    -0.33100
H681        H  0.59936787  0.12220660  0.27560500     0.28300
H682        H  0.62145141  0.05322918  0.17937961     0.28300
H683        H  0.60391332  0.05143435  0.25213341     0.18800
H684        H  0.61925643  0.12530459  0.20299423     0.18900
C685        C  0.49023406  0.93485924  0.14695301    -0.07000
C686        C  0.48069601  0.93380293  0.12144536    -0.18100
C687        C  0.45825400  0.93255173  0.11748152     0.10200
C688        C  0.44509004  0.93303626  0.13971222    -0.06900
C689        C  0.45549214  0.93586629  0.16518173    -0.18100
C690        C  0.47770069  0.93631246  0.16904092     0.10200
S691        S  0.44757506  0.92954005  0.08346905    -0.33100
S692        S  0.48833641  0.93638254  0.20222296    -0.33100
H693        H  0.46455284  0.92534814  0.21359832     0.28300
H694        H  0.43099805  0.93743187  0.08706255     0.28300
H695        H  0.49038836  0.93287947  0.10435069     0.18800
H696        H  0.44542987  0.93619055  0.18219502     0.18900
C697        C  0.56816637  0.98277722  0.12975432    -0.07000
C698        C  0.55291059  0.99145565  0.12221538    -0.18100
C699        C  0.56255973  0.01687701  0.12020006     0.10200
C700        C  0.58813162  0.03437528  0.12603076    -0.06900
C701        C  0.60398927  0.02571300  0.13090904    -0.18100
C702        C  0.59426134  0.00006319  0.13295095     0.10200
S703        S  0.54103033  0.02570275  0.11072990    -0.33100
S704        S  0.61563839  0.99094272  0.14235359    -0.33100
H705        H  0.60327760  0.96831179  0.12802908     0.28300
H706        H  0.55905250  0.04680305  0.09684343     0.28300
H707        H  0.53296580  0.97833040  0.11917339     0.18800
H708        H  0.62375064  0.03901377  0.13499810     0.18900
C709        C  0.48998106  0.93705057  0.32614224    -0.07000
C710        C  0.48263170  0.94098717  0.30130911    -0.18100
C711        C  0.45946932  0.93860409  0.29758713     0.10200
C712        C  0.44350496  0.93260240  0.31934083    -0.06900
C713        C  0.45187012  0.93080135  0.34450648    -0.18100
C714        C  0.47462567  0.93275158  0.34824396     0.10200
S715        S  0.44967906  0.94026948  0.26447239    -0.33100
S716        S  0.48173552  0.92846294  0.38173059    -0.33100
H717        H  0.50752796  0.94021668  0.37872143     0.28300
H718        H  0.47379185  0.95302645  0.25367906     0.28300
H719        H  0.49404827  0.94383607  0.28427587     0.18800
H720        H  0.43998139  0.92679981  0.36144936     0.18900
C721        C  0.60140815  0.03795855  0.32986424    -0.07000
C722        C  0.58450070  0.02630272  0.35040753    -0.18100
C723        C  0.57196256  0.00053699  0.35381269     0.10200
C724        C  0.57607195  0.98582940  0.33615405    -0.06900
C725        C  0.59457919  0.99784893  0.31693508    -0.18100
C726        C  0.60744216  0.02378598  0.31374436     0.10200
S727        S  0.54930507  0.98739150  0.37955588    -0.33100
S728        S  0.63021170  0.03740427  0.28787898    -0.33100
H729        H  0.64294674  0.06211385  0.29759535     0.28300
H730        H  0.55404698  0.96880401  0.38546095     0.28300
H731        H  0.57981484  0.03712913  0.36283676     0.18800
H732        H  0.59793008  0.98679687  0.30328652     0.18900
C733        C  0.54181102  0.93299865  0.20890598    -0.07000
C734        C  0.52205014  0.91215301  0.22137855    -0.18100
C735        C  0.51947846  0.91174672  0.24876631     0.10200
C736        C  0.53742650  0.93247136  0.26437366    -0.06900
C737        C  0.55696856  0.95353691  0.25192090    -0.18100
C738        C  0.55957633  0.95378533  0.22439482     0.10200
S739        S  0.49245305  0.88445958  0.26237555    -0.33100
S740        S  0.58698604  0.98004878  0.21040868    -0.33100
H741        H  0.58976967  0.96588093  0.19094001     0.28300
H742        H  0.48928739  0.89718991  0.28322949     0.28300
H743        H  0.50805516  0.89628539  0.20954657     0.18800
H744        H  0.57094197  0.96934486  0.26376352     0.18900
C745        C  0.65695684  0.17641250  0.37440035    -0.07000
C746        C  0.64373724  0.15349182  0.38728932    -0.18100
C747        C  0.63580810  0.13100675  0.37391295     0.10200
C748        C  0.64129076  0.13126328  0.34662886    -0.06900
C749        C  0.65772262  0.15473512  0.33509611    -0.18100
C750        C  0.66552794  0.17712040  0.34864006     0.10200
S751        S  0.61594786  0.10218894  0.39136302    -0.33100
S752        S  0.68605640  0.20589212  0.33176253    -0.33100
H753        H  0.69962452  0.21923605  0.35472976     0.28300
H754        H  0.61803809  0.11273048  0.41658132     0.28300
H755        H  0.63787632  0.15300105  0.40742865     0.18800
H756        H  0.66380827  0.15634280  0.31502798     0.18900
C757        C  0.65558430  0.17406270  0.08283613    -0.07000
C758        C  0.64022718  0.15120470  0.06937940    -0.18100
C759        C  0.63158417  0.12846688  0.08185407     0.10200
C760        C  0.63848502  0.12843336  0.10875265    -0.06900
C761        C  0.65753233  0.15141842  0.12018377    -0.18100
C762        C  0.66609452  0.17407489  0.10757591     0.10200
S763        S  0.60877321  0.10009863  0.06413227    -0.33100
S764        S  0.68960886  0.20226056  0.12467275    -0.33100
H765        H  0.70253773  0.21422158  0.10152002     0.28300
H766        H  0.61304136  0.11041176  0.03874302     0.28300
H767        H  0.63305508  0.15102083  0.04977832     0.18800
H768        H  0.66496976  0.15251694  0.13980643     0.18900
C769        C  0.47307028  0.11665613  0.35049162    -0.07000
C770        C  0.48151414  0.11746254  0.37659058    -0.18100
C771        C  0.49571042  0.13997108  0.39073556     0.10200
C772        C  0.50063456  0.16238001  0.37929874    -0.06900
C773        C  0.48882925  0.16099121  0.35514281    -0.18100
C774        C  0.47394983  0.13819510  0.34139521     0.10200
S775        S  0.50908958  0.13891221  0.42198064    -0.33100
S776        S  0.45344466  0.13740663  0.31586204    -0.33100
H777        H  0.43525913  0.11179733  0.31844331     0.28300
H778        H  0.53355051  0.15847485  0.41588506     0.28300
H779        H  0.47949532  0.10083873  0.38490217     0.18800
H780        H  0.49049617  0.17763379  0.34738890     0.18900
C781        C  0.49700235  0.16980246  0.09155430    -0.07000
C782        C  0.48629457  0.14748107  0.07685606    -0.18100
C783        C  0.47219456  0.12420756  0.08887055     0.10200
C784        C  0.46814376  0.12293291  0.11665883    -0.06900
C785        C  0.47587122  0.14554781  0.13035444    -0.18100
C786        C  0.49043752  0.16882461  0.11823716     0.10200
S787        S  0.46265383  0.09682880  0.06856340    -0.33100
S788        S  0.50119125  0.19702572  0.13747077    -0.33100
H789        H  0.48605901  0.18560218  0.15956955     0.28300
H790        H  0.46869239  0.10842578  0.04379727     0.28300
H791        H  0.49071334  0.14824070  0.05612138     0.18800
H792        H  0.47265066  0.14576191  0.15107893     0.18900
C793        C  0.33717812  0.82920914  0.36622032    -0.07000
C794        C  0.34629653  0.85132683  0.38083725    -0.18100
C795        C  0.35545159  0.87423999  0.36849599     0.10200
C796        C  0.35420823  0.87521239  0.34036689    -0.06900
C797        C  0.34223825  0.85216625  0.32615034    -0.18100
C798        C  0.33389542  0.82939533  0.33867612     0.10200
S799        S  0.37207546  0.90195759  0.38933063    -0.33100
S800        S  0.31968292  0.80082607  0.31920471    -0.33100
H801        H  0.32208081  0.81146253  0.29424895     0.28300
H802        H  0.36320935  0.89030322  0.41383439     0.28300
H803        H  0.34867892  0.85108412  0.40206579     0.18800
H804        H  0.34123875  0.85173734  0.30487525     0.18900
C805        C  0.34020546  0.83440993  0.08302709    -0.07000
C806        C  0.35142550  0.85649405  0.06864442    -0.18100
C807        C  0.35991813  0.87961384  0.08097510     0.10200
C808        C  0.35671720  0.88084262  0.10870984    -0.06900
C809        C  0.34219068  0.85787394  0.12199110    -0.18100
C810        C  0.33396886  0.83492898  0.10951316     0.10200
S811        S  0.37747887  0.90729955  0.06123325    -0.33100
S812        S  0.31620634  0.80702685  0.12867223    -0.33100
H813        H  0.30194564  0.79154074  0.10705361     0.28300
H814        H  0.37602428  0.89552509  0.03700187     0.28300
H815        H  0.35547759  0.85588113  0.04799080     0.18800
H816        H  0.33857540  0.85720013  0.14284929     0.18900
C817        C  0.52885327  0.89042618  0.35261279    -0.07000
C818        C  0.52075837  0.86767470  0.33894696    -0.18100
C819        C  0.50643443  0.84443736  0.35120763     0.10200
C820        C  0.50041078  0.84350505  0.37806702    -0.06900
C821        C  0.51118903  0.86594740  0.39264498    -0.18100
C822        C  0.52500764  0.88921698  0.38040439     0.10200
S823        S  0.49539933  0.81614077  0.33198960    -0.33100
S824        S  0.53443532  0.91671947  0.40035985    -0.33100
H825        H  0.53032294  0.90556969  0.42527218     0.28300
H826        H  0.50527486  0.82735034  0.30752885     0.28300
H827        H  0.52355113  0.86729036  0.31817605     0.18800
H828        H  0.50699794  0.86527787  0.41344361     0.18900
C829        C  0.52752165  0.88620503  0.12444459    -0.07000
C830        C  0.50804972  0.86487498  0.13703919    -0.18100
C831        C  0.49412783  0.84161573  0.12433173     0.10200
C832        C  0.49930586  0.83921656  0.09775417    -0.06900
C833        C  0.52110371  0.85933178  0.08651315    -0.18100
C834        C  0.53590458  0.88238666  0.10005020     0.10200
S835        S  0.46891051  0.81601237  0.14227317    -0.33100
S836        S  0.56586739  0.90444487  0.08627474    -0.33100
H837        H  0.57787007  0.91313849  0.11120393     0.28300
H838        H  0.47568390  0.82737539  0.16757542     0.28300
H839        H  0.50208502  0.86698983  0.15634769     0.18800
H840        H  0.52662117  0.85716169  0.06696603     0.18900
C841        C  0.15791646  0.50225666  0.08070717    -0.07000
C842        C  0.13574026  0.49624803  0.06742270    -0.18100
C843        C  0.11248091  0.48342606  0.07997226     0.10200
C844        C  0.11108954  0.47640302  0.10688310    -0.06900
C845        C  0.13295621  0.47927008  0.11852391    -0.18100
C846        C  0.15611306  0.49206526  0.10583607     0.10200
S847        S  0.08535027  0.47843717  0.06182954    -0.33100
S848        S  0.18271569  0.49511447  0.12305471    -0.33100
H849        H  0.19390909  0.49319364  0.10002996     0.28300
H850        H  0.09710794  0.48866212  0.03767352     0.28300
H851        H  0.13686543  0.50313477  0.04764638     0.18800
H852        H  0.13297321  0.47274927  0.13803684     0.18900
C853        C  0.11849744  0.48346257  0.33648094    -0.07000
C854        C  0.13875835  0.50543510  0.32563999    -0.18100
C855        C  0.16189840  0.51963254  0.33882650     0.10200
C856        C  0.16599859  0.51108056  0.36283938    -0.06900
C857        C  0.14706538  0.48754714  0.37188406    -0.18100
C858        C  0.12386735  0.47321510  0.35844619     0.10200
S859        S  0.18424501  0.54960048  0.32516586    -0.33100
S860        S  0.10429263  0.44112567  0.36803882    -0.33100
H861        H  0.09509637  0.43216977  0.34220222     0.28300
H862        H  0.18821003  0.56274695  0.34915205     0.28300
H863        H  0.13593463  0.51275229  0.30758179     0.18800
H864        H  0.15058079  0.47999439  0.38931476     0.18900
C865        C  0.07037962  0.46266868  0.19752688    -0.07000
C866        C  0.04831776  0.44401044  0.20948763    -0.18100
C867        C  0.04732246  0.44066929  0.23695918     0.10200
C868        C  0.06871045  0.45651735  0.25300565    -0.06900
C869        C  0.09057564  0.47542957  0.24085410    -0.18100
C870        C  0.09152875  0.47893476  0.21362328     0.10200
S871        S  0.01875577  0.41517139  0.25014399    -0.33100
S872        S  0.11974469  0.50571846  0.20108129    -0.33100
H873        H  0.10738261  0.51165144  0.18219368     0.28300
H874        H  0.03139502  0.40865360  0.26799745     0.28300
H875        H  0.03195397  0.43154996  0.19730077     0.18800
H876        H  0.10686401  0.48848780  0.25281425     0.18900
C877        C  0.87070167  0.38012279  0.13245897    -0.07000
C878        C  0.85497149  0.38868267  0.13897161    -0.18100
C879        C  0.83286474  0.38083472  0.12480398     0.10200
C880        C  0.82480817  0.36234642  0.10478738    -0.06900
C881        C  0.83845320  0.35107825  0.10086529    -0.18100
C882        C  0.86063874  0.35895941  0.11532600     0.10200
S883        S  0.81735837  0.39707783  0.13159514    -0.33100
S884        S  0.87253162  0.33888774  0.11393304    -0.33100
H885        H  0.88201760  0.34413363  0.14011004     0.28300
H886        H  0.81549448  0.40191603  0.10481304     0.28300
H887        H  0.86084996  0.40310527  0.15403299     0.18800
H888        H  0.83143236  0.33559788  0.08690862     0.18900
C889        C  0.96461043  0.41014227  0.13173638    -0.07000
C890        C  0.97740047  0.42733488  0.11170033    -0.18100
C891        C  0.00295126  0.43740347  0.10782383     0.10200
C892        C  0.01612033  0.43035760  0.12441494    -0.06900
C893        C  0.00272094  0.41141961  0.14275836    -0.18100
C894        C  0.97712330  0.40118676  0.14647322     0.10200
S895        S  0.01852101  0.46155538  0.08382951    -0.33100
S896        S  0.96183583  0.37849035  0.17200652    -0.33100
H897        H  0.93836387  0.36591834  0.15889759     0.28300
H898        H  0.03354646  0.45295062  0.07519852     0.28300
H899        H  0.96800565  0.43455616  0.10056206     0.18800
H900        H  0.01267301  0.40606937  0.15579776     0.18900
C901        C  0.87482244  0.37562177  0.34829027    -0.07000
C902        C  0.86910633  0.36042600  0.37058712    -0.18100
C903        C  0.84584288  0.34966568  0.38288679     0.10200
C904        C  0.82785413  0.35440554  0.37313930    -0.06900
C905        C  0.83229828  0.36703780  0.34936015    -0.18100
C906        C  0.85532774  0.37769168  0.33681621     0.10200
S907        S  0.84036743  0.33028274  0.41107578    -0.33100
S908        S  0.85983853  0.39616940  0.30778671    -0.33100
H909        H  0.83432630  0.38602374  0.30187209     0.28300
H910        H  0.81445508  0.31419705  0.40604970     0.28300
H911        H  0.88284514  0.35747621  0.37939144     0.18800
H912        H  0.81840344  0.37042557  0.34166952     0.18900
C913        C  0.96983352  0.40855294  0.34590700    -0.07000
C914        C  0.98742831  0.42839362  0.36225977    -0.18100
C915        C  0.01314727  0.44067436  0.35745464     0.10200
C916        C  0.02141807  0.43237454  0.33625250    -0.06900
C917        C  0.00397644  0.41048131  0.32240677    -0.18100
C918        C  0.97833332  0.39850763  0.32695646     0.10200
S919        S  0.03379386  0.46806726  0.37745786    -0.33100
S920        S  0.95724015  0.37269348  0.30529570    -0.33100
H921        H  0.93659599  0.36246683  0.32213874     0.28300
H922        H  0.04986303  0.48248973  0.35717781     0.28300
H923        H  0.98101547  0.43639114  0.37660910     0.18800
H924        H  0.01021560  0.40352494  0.30679748     0.18900
C925        C  0.92766342  0.40142452  0.21301908    -0.07000
C926        C  0.94651459  0.42317397  0.22621196    -0.18100
C927        C  0.94967557  0.42454166  0.25375338     0.10200
C928        C  0.93184276  0.40400070  0.26910444    -0.06900
C929        C  0.91600612  0.38111532  0.25551039    -0.18100
C930        C  0.91395984  0.37946319  0.22794024     0.10200
S931        S  0.97723130  0.45248763  0.26707658    -0.33100
S932        S  0.89404464  0.34856108  0.21369919    -0.33100
H933        H  0.90678837  0.35376697  0.18975930     0.28300
H934        H  0.98998949  0.46212761  0.24322729     0.28300
H935        H  0.95825241  0.43995669  0.21527558     0.18800
H936        H  0.90478822  0.36408051  0.26639609     0.18900
C937        C  0.12396557  0.64435240  0.11334980    -0.07000
C938        C  0.12224569  0.63752826  0.08645605    -0.18100
C939        C  0.14327120  0.64242968  0.07264314     0.10200
C940        C  0.16724548  0.65672823  0.08494100    -0.06900
C941        C  0.16941668  0.66762625  0.10992197    -0.18100
C942        C  0.14807660  0.66239058  0.12384382     0.10200
S943        S  0.13745803  0.62682901  0.04094939    -0.33100
S944        S  0.15325422  0.68216277  0.15203975    -0.33100
H945        H  0.13012923  0.68018558  0.14904873     0.28300
H946        H  0.15103685  0.61589342  0.04757917     0.28300
H947        H  0.10394801  0.62503897  0.07732154     0.18800
H948        H  0.18785432  0.68056997  0.11847944     0.18900
C949        C  0.06168449  0.55601864  0.13506714    -0.07000
C950        C  0.05860006  0.54438126  0.15946014    -0.18100
C951        C  0.05881562  0.52247358  0.16121694     0.10200
C952        C  0.06228466  0.51219890  0.13799158    -0.06900
C953        C  0.06264032  0.52248359  0.11343209    -0.18100
C954        C  0.06209047  0.54397160  0.11168470     0.10200
S955        S  0.05753557  0.50986304  0.19345452    -0.33100
S956        S  0.06321159  0.55572286  0.07904680    -0.33100
H957        H  0.05247600  0.56910836  0.08644489     0.28300
H958        H  0.04955308  0.52358801  0.20723932     0.28300
H959        H  0.05828374  0.55363309  0.17738995     0.18800
H960        H  0.06431915  0.51420026  0.09539549     0.18900
C961        C  0.11209335  0.62845228  0.34834300    -0.07000
C962        C  0.11290217  0.61680613  0.37158625    -0.18100
C963        C  0.13558071  0.62370454  0.38407132     0.10200
C964        C  0.15834616  0.64397343  0.37439463    -0.06900
C965        C  0.15734741  0.65784101  0.35355478    -0.18100
C966        C  0.13443609  0.65108116  0.34136469     0.10200
S967        S  0.13410781  0.60431214  0.41073710    -0.33100
S968        S  0.13474054  0.67434825  0.32099465    -0.33100
H969        H  0.10968964  0.66637648  0.32589744     0.28300
H970        H  0.15417121  0.60278747  0.40169611     0.28300
H971        H  0.09582874  0.60058698  0.37873432     0.18800
H972        H  0.17441499  0.67470589  0.34751381     0.18900
C973        C  0.05375720  0.54732083  0.30327138    -0.07000
C974        C  0.07324068  0.54918652  0.28834680    -0.18100
C975        C  0.07677925  0.52937654  0.28673025     0.10200
C976        C  0.06016221  0.50703130  0.29982863    -0.06900
C977        C  0.03844100  0.50377693  0.31103620    -0.18100
C978        C  0.03508234  0.52378853  0.31294283     0.10200
S979        S  0.10351548  0.53341350  0.26948644    -0.33100
S980        S  0.00794095  0.51864475  0.32996287    -0.33100
H981        H  0.00742353  0.53822430  0.31813649     0.28300
H982        H  0.11091962  0.55642441  0.25801691     0.28300
H983        H  0.08727150  0.56709181  0.28044334     0.18800
H984        H  0.02505533  0.48623868  0.32017980     0.18900
C985        C  0.07030434  0.60586328  0.25632694    -0.07000
C986        C  0.09101956  0.60723722  0.24451718    -0.18100
C987        C  0.09356398  0.60769584  0.21705957     0.10200
C988        C  0.07558582  0.60793893  0.20051431    -0.06900
C989        C  0.05411930  0.60501755  0.21205222    -0.18100
C990        C  0.05118771  0.60385143  0.23967027     0.10200
S991        S  0.11932014  0.60625590  0.20456516    -0.33100
S992        S  0.02369384  0.60144203  0.25293494    -0.33100
H993        H  0.00924396  0.59318046  0.22935332     0.28300
H994        H  0.10630509  0.59180051  0.18193623     0.28300
H995        H  0.10517411  0.60730396  0.25677419     0.18800
H996        H  0.03990570  0.60436517  0.19948636     0.18900
C997        C  0.83634367  0.50415628  0.09211994    -0.07000
C998        C  0.83921967  0.49446847  0.11556433    -0.18100
C999        C  0.86238209  0.50536672  0.12865364     0.10200
C1000       C  0.88394460  0.52709303  0.11819287    -0.06900
C1001       C  0.88079944  0.53727369  0.09498721    -0.18100
C1002       C  0.85729462  0.52618138  0.08204548     0.10200
S1003       S  0.86355196  0.49016330  0.15838266    -0.33100
S1004       S  0.85511141  0.54143542  0.05323577    -0.33100
H1005       H  0.83065903  0.53537988  0.05826086     0.28300
H1006       H  0.83780152  0.47714834  0.16383979     0.28300
H1007       H  0.82336183  0.47738183  0.12310207     0.18800
H1008       H  0.89645850  0.55402293  0.08681791     0.18900
C1009       C  0.94651727  0.51071471  0.15628543    -0.07000
C1010       C  0.93961211  0.49752377  0.17994668    -0.18100
C1011       C  0.93663383  0.47407953  0.18137828     0.10200
C1012       C  0.94260893  0.46462575  0.15930364    -0.06900
C1013       C  0.95313571  0.47961628  0.13710019    -0.18100
C1014       C  0.95515282  0.50254412  0.13544577     0.10200
S1015       S  0.92156861  0.45490454  0.20974350    -0.33100
S1016       S  0.96744241  0.52012132  0.10576136    -0.33100
H1017       H  0.98043658  0.54279922  0.12000418     0.28300
H1018       H  0.91799274  0.47188904  0.22366619     0.28300
H1019       H  0.93405682  0.50427238  0.19632643     0.18800
H1020       H  0.95777815  0.47247808  0.12008380     0.18900
C1021       C  0.98049772  0.58990375  0.13291602    -0.07000
C1022       C  0.98994123  0.58773939  0.10876283    -0.18100
C1023       C  0.01559704  0.59738530  0.10612810     0.10200
C1024       C  0.03202875  0.60991343  0.12793653    -0.06900
C1025       C  0.02320577  0.61600979  0.14994676    -0.18100
C1026       C  0.99762424  0.60599768  0.15281310     0.10200
S1027       S  0.02533302  0.59052956  0.07568633    -0.33100
S1028       S  0.98722966  0.61247492  0.18293448    -0.33100
H1029       H  0.01095737  0.63123564  0.19296685     0.28300
H1030       H  0.05020982  0.61093593  0.07698042     0.28300
H1031       H  0.97708779  0.57597452  0.09303131     0.18800
H1032       H  0.03618150  0.62679663  0.16597682     0.18900
C1033       C  0.87180141  0.52175381  0.34512755    -0.07000
C1034       C  0.86951156  0.53287979  0.36821179    -0.18100
C1035       C  0.84663820  0.52215367  0.38143673     0.10200
C1036       C  0.82538034  0.49965212  0.37164098    -0.06900
C1037       C  0.82706663  0.48964531  0.34771546    -0.18100
C1038       C  0.84976141  0.49985397  0.33467057     0.10200
S1039       S  0.84582256  0.53816958  0.41059601    -0.33100
S1040       S  0.84993322  0.48321584  0.30549137    -0.33100
H1041       H  0.82506353  0.46259536  0.30621304     0.28300
H1042       H  0.82116150  0.53198412  0.40587087     0.28300
H1043       H  0.88549318  0.54970186  0.37657426     0.18800
H1044       H  0.81075199  0.47257359  0.34005487     0.18900
C1045       C  0.93671957  0.50314535  0.32323958    -0.07000
C1046       C  0.93781653  0.49531445  0.34885197    -0.18100
C1047       C  0.94095650  0.47551354  0.35269586     0.10200
C1048       C  0.94172218  0.46245555  0.33046071    -0.06900
C1049       C  0.94413263  0.47242491  0.30526369    -0.18100
C1050       C  0.94301787  0.49357094  0.30158452     0.10200
S1051       S  0.94145516  0.46620599  0.38619511    -0.33100
S1052       S  0.94833062  0.50681296  0.26911531    -0.33100
H1053       H  0.95811782  0.49352187  0.25805052     0.28300
H1054       H  0.95287319  0.45302405  0.38019102     0.28300
H1055       H  0.93476075  0.50374957  0.36588742     0.18800
H1056       H  0.94430331  0.46231598  0.28813919     0.18900
C1057       C  0.96898048  0.57949073  0.33675296    -0.07000
C1058       C  0.97943378  0.57063830  0.35455741    -0.18100
C1059       C  0.00464452  0.57813842  0.35304624     0.10200
C1060       C  0.01979772  0.59504771  0.33319163    -0.06900
C1061       C  0.01022322  0.60650036  0.31806076    -0.18100
C1062       C  0.98503951  0.59893889  0.31968698     0.10200
S1063       S  0.01503717  0.56375574  0.37597803    -0.33100
S1064       S  0.97382933  0.61310708  0.29776289    -0.33100
H1065       H  0.95159867  0.60521564  0.31146090     0.28300
H1066       H  0.03919883  0.57319605  0.36675128     0.28300
H1067       H  0.96722610  0.55564137  0.36769685     0.18800
H1068       H  0.02211297  0.62054972  0.30393701     0.18900
C1069       C  0.91795641  0.54466528  0.26044788    -0.07000
C1070       C  0.92745745  0.56829917  0.24986460    -0.18100
C1071       C  0.92920456  0.57166960  0.22252858     0.10200
C1072       C  0.92335826  0.55126432  0.20584956    -0.06900
C1073       C  0.91145831  0.52731403  0.21634877    -0.18100
C1074       C  0.90809827  0.52368819  0.24348156     0.10200
S1075       S  0.93592560  0.60131031  0.21075321    -0.33100
S1076       S  0.89016315  0.49232627  0.25592372    -0.33100
H1077       H  0.88212149  0.47989909  0.23120689     0.28300
H1078       H  0.93033295  0.59478548  0.18383833     0.28300
H1079       H  0.93236581  0.58391376  0.26289494     0.18800
H1080       H  0.90402331  0.51137272  0.20306305     0.18900
C1081       C  0.47429531  0.36652685  0.11715529    -0.07000
C1082       C  0.47622437  0.34713761  0.12782959    -0.18100
C1083       C  0.48830175  0.33731383  0.11431092     0.10200
C1084       C  0.49886137  0.34687157  0.08948649    -0.06900
C1085       C  0.49384610  0.36343977  0.07719684    -0.18100
C1086       C  0.48139259  0.37301985  0.09040209     0.10200
S1087       S  0.48945097  0.31252211  0.12973068    -0.33100
S1088       S  0.47675057  0.39514067  0.07328288    -0.33100
H1089       H  0.48312457  0.39135404  0.04788759     0.28300
H1090       H  0.48792876  0.30026914  0.10579978     0.28300
H1091       H  0.46894550  0.33955905  0.14694026     0.18800
H1092       H  0.50108793  0.37015250  0.05766645     0.18900
C1093       C  0.48977130  0.33616473  0.37916913    -0.07000
C1094       C  0.48102806  0.34927030  0.39265945    -0.18100
C1095       C  0.46692376  0.35725556  0.37972913     0.10200
C1096       C  0.46118595  0.35213523  0.35218846    -0.06900
C1097       C  0.46726446  0.33609390  0.33977930    -0.18100
C1098       C  0.48129341  0.32809659  0.35290828     0.10200
S1099       S  0.45920408  0.37650470  0.39844399    -0.33100
S1100       S  0.48800562  0.30787369  0.33488825    -0.33100
H1101       H  0.48619623  0.29376951  0.35704866     0.28300
H1102       H  0.46242284  0.36944992  0.42374290     0.28300
H1103       H  0.48687470  0.35499879  0.41306479     0.18800
H1104       H  0.46230983  0.33030914  0.31939115     0.18900
C1105       C  0.44719344  0.38171914  0.26288400    -0.07000
C1106       C  0.46267679  0.40592260  0.25320402    -0.18100
C1107       C  0.46772076  0.41043537  0.22639942     0.10200
C1108       C  0.45681038  0.39008970  0.20824431    -0.06900
C1109       C  0.44034538  0.36586037  0.21773575    -0.18100
C1110       C  0.43521312  0.36145683  0.24469368     0.10200
S1111       S  0.48999561  0.44223161  0.21708627    -0.33100
S1112       S  0.41263592  0.32977786  0.25403292    -0.33100
H1113       H  0.40505614  0.33579877  0.27729788     0.28300
H1114       H  0.48728250  0.45384220  0.23945207     0.28300
H1115       H  0.47220230  0.42158059  0.26683966     0.18800
H1116       H  0.43099876  0.35018880  0.20395028     0.18900
C1117       C  0.35877115  0.48237431  0.11707767    -0.07000
C1118       C  0.34185426  0.48752831  0.12895885    -0.18100
C1119       C  0.33256722  0.50022507  0.11544853     0.10200
C1120       C  0.34030623  0.50823642  0.08942440    -0.06900
C1121       C  0.35431880  0.50032750  0.07643689    -0.18100
C1122       C  0.36335326  0.48739354  0.08964315     0.10200
S1123       S  0.31111356  0.50623709  0.13188296    -0.33100
S1124       S  0.38277551  0.47987535  0.07125740    -0.33100
H1125       H  0.37557285  0.48273999  0.04577541     0.28300
H1126       H  0.30605758  0.49047292  0.15348375     0.28300
H1127       H  0.33666521  0.48315363  0.14923617     0.18800
H1128       H  0.35963912  0.50568698  0.05613837     0.18900
C1129       C  0.39898610  0.43182561  0.13476441    -0.07000
C1130       C  0.39435496  0.41536335  0.15535001    -0.18100
C1131       C  0.40632449  0.40229709  0.15654004     0.10200
C1132       C  0.42309063  0.40540928  0.13645355    -0.06900
C1133       C  0.42588268  0.42002083  0.11458377    -0.18100
C1134       C  0.41415367  0.43337292  0.11364367     0.10200
S1135       S  0.40103211  0.38363607  0.18531648    -0.33100
S1136       S  0.42188339  0.45461267  0.08692966    -0.33100
H1137       H  0.39655490  0.44425912  0.08017427     0.28300
H1138       H  0.40650175  0.36731107  0.17291607     0.28300
H1139       H  0.38260644  0.41393319  0.17152303     0.18800
H1140       H  0.43907697  0.42288643  0.09936590     0.18900
C1141       C  0.34454344  0.51130405  0.37762712    -0.07000
C1142       C  0.35709012  0.50241004  0.39204285    -0.18100
C1143       C  0.36453654  0.48755089  0.38012595     0.10200
C1144       C  0.35959998  0.48141644  0.35266575    -0.06900
C1145       C  0.34414059  0.48781877  0.33933388    -0.18100
C1146       C  0.33670836  0.50261733  0.35141407     0.10200
S1147       S  0.38215472  0.47849792  0.40007390    -0.33100
S1148       S  0.31753025  0.50997323  0.33207198    -0.33100
H1149       H  0.30206086  0.50730649  0.35324599     0.28300
H1150       H  0.38377947  0.49139247  0.42351233     0.28300
H1151       H  0.36226439  0.50821399  0.41253081     0.18800
H1152       H  0.33833765  0.48250625  0.31902558     0.18900
C1153       C  0.39122186  0.42321912  0.33932933    -0.07000
C1154       C  0.38305539  0.40508619  0.31928444    -0.18100
C1155       C  0.39217042  0.38943526  0.31795244     0.10200
C1156       C  0.40920158  0.39140822  0.33758301    -0.06900
C1157       C  0.41413445  0.40676844  0.35983543    -0.18100
C1158       C  0.40500964  0.42247409  0.36103044     0.10200
S1159       S  0.38355273  0.36913529  0.28941995    -0.33100
S1160       S  0.41283630  0.44217907  0.38979889    -0.33100
H1161       H  0.38812473  0.43597924  0.39279697     0.28300
H1162       H  0.38567275  0.35116659  0.30299463     0.28300
H1163       H  0.37089711  0.40433228  0.30359277     0.18800
H1164       H  0.42695874  0.40821493  0.37518705     0.18900
C1165       C  0.38777500  0.46984316  0.20786893    -0.07000
C1166       C  0.39307057  0.45344426  0.22003815    -0.18100
C1167       C  0.39363374  0.45165999  0.24774088     0.10200
C1168       C  0.38835007  0.46647625  0.26402666    -0.06900
C1169       C  0.38426680  0.48374647  0.25159594    -0.18100
C1170       C  0.38409310  0.48576876  0.22410971     0.10200
S1171       S  0.40063150  0.42995057  0.26116727    -0.33100
S1172       S  0.38055740  0.51024007  0.21161307    -0.33100
H1173       H  0.39644929  0.51630839  0.18994863     0.28300
H1174       H  0.40464114  0.42136307  0.23718002     0.28300
H1175       H  0.39658853  0.44177091  0.20770350     0.18800
H1176       H  0.38177111  0.49646576  0.26348095     0.18900
C1177       C  0.63707766  0.52743776  0.12589732    -0.07000
C1178       C  0.65093146  0.53701620  0.10259736    -0.18100
C1179       C  0.66021304  0.52442335  0.08899695     0.10200
C1180       C  0.65563840  0.50154236  0.09858670    -0.06900
C1181       C  0.64436678  0.49338290  0.12317021    -0.22900
C1182       C  0.63480073  0.50564577  0.13677958     0.10200
S1183       S  0.67742462  0.53841053  0.05927001    -0.33100
S1184       S  0.61787216  0.49148509  0.16688621    -0.33100
H1185       H  0.61526189  0.46822463  0.16370950     0.28300
H1186       H  0.69392620  0.53025449  0.06283746     0.28300
H1187       H  0.65371427  0.55371453  0.09388513     0.18800
H1188       H  0.64147645  0.47623870  0.13093350     0.18900
C1189       C  0.55196337  0.50027181  0.15086083    -0.07000
C1190       C  0.55146705  0.48183393  0.16634097    -0.18100
C1191       C  0.53033593  0.45766390  0.16671876     0.10200
C1192       C  0.50846141  0.45219499  0.15291382    -0.06900
C1193       C  0.50788149  0.47126323  0.13992832    -0.18100
C1194       C  0.52958605  0.49530434  0.13846281     0.10200
S1195       S  0.53210793  0.43350352  0.18319964    -0.33100
S1196       S  0.52794911  0.51765667  0.11839970    -0.33100
H1197       H  0.54820829  0.53908543  0.13044965     0.28300
H1198       H  0.55700876  0.44870585  0.19256676     0.28300
H1199       H  0.56854695  0.48591616  0.17623870     0.18800
H1200       H  0.49099968  0.46694001  0.12930746     0.18900
C1201       C  0.64640060  0.49280356  0.37248535    -0.07000
C1202       C  0.63652579  0.48448861  0.34689581    -0.18100
C1203       C  0.62578159  0.49524933  0.33255622     0.10200
C1204       C  0.62531905  0.51564867  0.34377384    -0.06900
C1205       C  0.63733746  0.52531185  0.36854438    -0.18100
C1206       C  0.64782560  0.51425712  0.38285635     0.10200
S1207       S  0.61054818  0.48064197  0.30111198    -0.33100
S1208       S  0.66193447  0.52808084  0.41463837    -0.33100
H1209       H  0.68219769  0.52507951  0.41152330     0.28300
H1210       H  0.61819805  0.46366758  0.29928057     0.28300
H1211       H  0.63555050  0.46819615  0.33879213     0.18800
H1212       H  0.63762270  0.54074011  0.37788679     0.18900
C1213       C  0.53837954  0.48436833  0.31617831    -0.07000
C1214       C  0.53606466  0.46399658  0.30237119    -0.18100
C1215       C  0.51424569  0.44027989  0.30346186     0.10200
C1216       C  0.49394145  0.43679159  0.31838946    -0.06900
C1217       C  0.49518755  0.45745725  0.33011071    -0.18100
C1218       C  0.51727013  0.48127563  0.32921072     0.10200
S1219       S  0.51329609  0.41437576  0.28715920    -0.33100
S1220       S  0.51800178  0.50604312  0.34737887    -0.33100
H1221       H  0.53320291  0.52485912  0.32961416     0.28300
H1222       H  0.53497885  0.42870214  0.27211172     0.28300
H1223       H  0.55221779  0.46640158  0.29229387     0.18800
H1224       H  0.47943782  0.45476721  0.34131145     0.18900
C1225       C  0.59825900  0.54033323  0.26125932    -0.07000
C1226       C  0.62206131  0.55788678  0.25135051    -0.18100
C1227       C  0.62583492  0.56242053  0.22422757     0.10200
C1228       C  0.60544751  0.54889241  0.20632857    -0.06900
C1229       C  0.58137273  0.53301606  0.21633426    -0.18100
C1230       C  0.57748597  0.52842286  0.24345360     0.10200
S1231       S  0.65699769  0.58573260  0.21380052    -0.33100
S1232       S  0.54629912  0.50521725  0.25396296    -0.33100
H1233       H  0.53352768  0.50439011  0.23062677     0.28300
H1234       H  0.64933478  0.59207452  0.19061447     0.28300
H1235       H  0.63798664  0.56792260  0.26485664     0.18800
H1236       H  0.56566847  0.52274640  0.20269947     0.18900
C1237       C  0.52035561  0.64575146  0.12260675    -0.07000
C1238       C  0.49691870  0.63943100  0.13267675    -0.18100
C1239       C  0.48173619  0.64601924  0.11995553     0.10200
C1240       C  0.49041272  0.66072706  0.09716201    -0.06900
C1241       C  0.51483917  0.66960116  0.08870286    -0.18100
C1242       C  0.53024608  0.66314339  0.10167670     0.10200
S1243       S  0.45042344  0.63253221  0.13215824    -0.33100
S1244       S  0.56248766  0.68011174  0.09207395    -0.33100
H1245       H  0.57158077  0.68269382  0.11822966     0.28300
H1246       H  0.43873157  0.62435548  0.10704596     0.28300
H1247       H  0.48917328  0.62702113  0.14935202     0.18800
H1248       H  0.52215162  0.68205771  0.07204204     0.18900
C1249       C  0.49424486  0.55995382  0.14332324    -0.07000
C1250       C  0.48166021  0.55320030  0.16735719    -0.18100
C1251       C  0.45872991  0.53069486  0.16990255     0.10200
C1252       C  0.44667815  0.51559693  0.14724538    -0.06900
C1253       C  0.45946094  0.52200749  0.12320012    -0.18100
C1254       C  0.48335085  0.54372051  0.12119356     0.10200
S1255       S  0.44493235  0.52363840  0.20201327    -0.33100
S1256       S  0.49819272  0.55088554  0.08948466    -0.33100
H1257       H  0.52270598  0.56487015  0.10001091     0.28300
H1258       H  0.44397984  0.50111787  0.20344307     0.28300
H1259       H  0.48889243  0.56630045  0.18388927     0.18800
H1260       H  0.45036191  0.51054302  0.10566444     0.18900
C1261       C  0.58063001  0.61349567  0.12897133    -0.07000
C1262       C  0.57814755  0.59893117  0.10679190    -0.18100
C1263       C  0.58983234  0.58550844  0.10633713     0.10200
C1264       C  0.60426390  0.58679626  0.12852774    -0.06900
C1265       C  0.60964868  0.60423712  0.14880241    -0.18100
C1266       C  0.59814066  0.61774824  0.14913029     0.10200
S1267       S  0.58230273  0.56409993  0.07903484    -0.33100
S1268       S  0.60411968  0.63783432  0.17737755    -0.33100
H1269       H  0.59629811  0.65226978  0.16496115     0.28300
H1270       H  0.60595270  0.56721529  0.07852126     0.28300
H1271       H  0.56498456  0.59588349  0.09106274     0.18800
H1272       H  0.62085716  0.60547189  0.16582131     0.18900
C1273       C  0.52167384  0.64404628  0.35206526    -0.07000
C1274       C  0.51927934  0.66311106  0.34138695    -0.18100
C1275       C  0.50744475  0.67307421  0.35530294     0.10200
C1276       C  0.49804181  0.66420492  0.38068879    -0.06900
C1277       C  0.50325624  0.64772019  0.39274176    -0.18100
C1278       C  0.51497113  0.63764483  0.37898379     0.10200
S1279       S  0.50472855  0.69731574  0.34059648    -0.33100
S1280       S  0.51918513  0.61504265  0.39573210    -0.33100
H1281       H  0.51175464  0.61767015  0.42102548     0.28300
H1282       H  0.51554667  0.69804968  0.31619265     0.28300
H1283       H  0.52577736  0.66992331  0.32185018     0.18800
H1284       H  0.49667473  0.64145704  0.41256820     0.18900
C1285       C  0.48879467  0.55823706  0.31796592    -0.07000
C1286       C  0.48595207  0.54304801  0.33929903    -0.18100
C1287       C  0.46385009  0.51966496  0.34218697     0.10200
C1288       C  0.44474339  0.51067193  0.32257537    -0.06900
C1289       C  0.44869660  0.52486143  0.29996035    -0.18100
C1290       C  0.47012204  0.54882586  0.29778210     0.10200
S1291       S  0.46068859  0.50292552  0.37192432    -0.33100
S1292       S  0.47125016  0.56683598  0.26983202    -0.33100
H1293       H  0.48353009  0.59014590  0.28283811     0.28300
H1294       H  0.43566834  0.49506930  0.37631165     0.28300
H1295       H  0.50017916  0.55030883  0.35490084     0.18800
H1296       H  0.43390439  0.51819696  0.28506166     0.18900
C1297       C  0.58974551  0.57196585  0.33704712    -0.07000
C1298       C  0.59662986  0.58932961  0.31686656    -0.18100
C1299       C  0.58825207  0.60556900  0.31663781     0.10200
C1300       C  0.57182640  0.60380349  0.33637336    -0.06900
C1301       C  0.56711265  0.58832626  0.35802946    -0.18100
C1302       C  0.57633463  0.57268468  0.35881165     0.10200
S1303       S  0.59711247  0.62659592  0.28938398    -0.33100
S1304       S  0.56776122  0.55202414  0.38638294    -0.33100
H1305       H  0.59052441  0.55329856  0.38786269     0.28300
H1306       H  0.59568297  0.64457449  0.30415712     0.28300
H1307       H  0.60724415  0.58912498  0.30028903     0.18800
H1308       H  0.55435240  0.58673573  0.37316449     0.18900
C1309       C  0.54108065  0.61913921  0.26132282    -0.07000
C1310       C  0.53228965  0.59651385  0.24769149    -0.18100
C1311       C  0.53469910  0.59527481  0.22039483     0.10200
C1312       C  0.54292429  0.61698022  0.20514978    -0.06900
C1313       C  0.55353207  0.63995481  0.21895587    -0.18100
C1314       C  0.55370381  0.64140259  0.24664970     0.10200
S1315       S  0.52743769  0.56556810  0.20720865    -0.33100
S1316       S  0.57148147  0.67226205  0.26141560    -0.33100
H1317       H  0.57845755  0.66521111  0.28448919     0.28300
H1318       H  0.52951582  0.55555309  0.23111329     0.28300
H1319       H  0.52276640  0.57915836  0.25816943     0.18800
H1320       H  0.56226927  0.65717883  0.20805972     0.18900
C1321       C  0.52700689  0.62737960  0.83414432     0.85600
C1322       C  0.50448558  0.60025348  0.83395507    -0.54600
C1323       C  0.50797336  0.58397748  0.82029923     0.08600
C1324       C  0.53380654  0.59606222  0.80786378     0.19500
C1325       C  0.54954633  0.62628121  0.84430064    -0.55300
C1326       C  0.55269724  0.60961326  0.83059111     0.08700
C1327       C  0.53205884  0.63308845  0.80425067    -0.54900
C1328       C  0.53634208  0.61709371  0.79055479     0.09200
H1329       H  0.48697665  0.59435900  0.84373241     0.13700
H1330       H  0.53668957  0.58231018  0.79777324    -0.00500
H1331       H  0.56153011  0.63725867  0.86097180     0.14000
H1332       H  0.53105668  0.64734620  0.79412144     0.13800
C1333       C  0.53154826  0.63069228  0.63355573     0.85600
C1334       C  0.53572188  0.63365311  0.66387916    -0.54600
C1335       C  0.54018557  0.61702108  0.67570457     0.08600
C1336       C  0.54046314  0.59907390  0.65546414     0.19500
C1337       C  0.55516786  0.63213878  0.62291329    -0.55300
C1338       C  0.55984347  0.61587308  0.63499060     0.08700
C1339       C  0.51082722  0.60308099  0.62905341    -0.54900
C1340       C  0.51512341  0.58667713  0.64079754     0.09200
H1341       H  0.53398968  0.64725984  0.67506484     0.13700
H1342       H  0.54482720  0.58570265  0.66315010    -0.00500
H1343       H  0.56681528  0.64353901  0.60703245     0.14000
H1344       H  0.49307169  0.59695694  0.61908601     0.13800
C1345       C  0.60774070  0.52247505  0.83169818     0.85600
C1346       C  0.61268690  0.52867203  0.80217202    -0.54600
C1347       C  0.59595014  0.53263176  0.78963802     0.08600
C1348       C  0.57600848  0.53087911  0.80828211     0.19500
C1349       C  0.60799786  0.54517061  0.84350269    -0.55300
C1350       C  0.59115534  0.54928138  0.83123214     0.08700
C1351       C  0.58024074  0.50106332  0.83323866    -0.54900
C1352       C  0.56362217  0.50504078  0.82081883     0.09200
H1353       H  0.62812073  0.52954564  0.79195441     0.13700
H1354       H  0.56277483  0.53470692  0.79835319    -0.00500
H1355       H  0.62027662  0.55731632  0.85936097     0.14000
H1356       H  0.57440615  0.48331549  0.84227885     0.13800
C1357       C  0.62131033  0.53630855  0.63562493     0.85600
C1358       C  0.59360178  0.51533300  0.63237431    -0.54600
C1359       C  0.57717725  0.51998467  0.64372254     0.08600
C1360       C  0.58983200  0.54592194  0.65657608     0.19500
C1361       C  0.62265405  0.55931421  0.62368006    -0.55300
C1362       C  0.60591976  0.56404391  0.63464019     0.08700
C1363       C  0.62556726  0.54259228  0.66553580    -0.54900
C1364       C  0.60874136  0.54702092  0.67666387     0.09200
H1365       H  0.58754128  0.49711712  0.62390121     0.13700
H1366       H  0.57646788  0.54998833  0.66555766    -0.00500
H1367       H  0.63581178  0.57137486  0.60893535     0.14000
H1368       H  0.63960194  0.54182504  0.67720304     0.13800
C1369       C  0.37444275  0.47151580  0.83847303     0.85600
C1370       C  0.36909875  0.46668101  0.80834840    -0.54600
C1371       C  0.38545966  0.46292549  0.79480338     0.08600
C1372       C  0.40513890  0.46308862  0.81327716     0.19500
C1373       C  0.37363402  0.44826431  0.84796542    -0.55300
C1374       C  0.38982713  0.44396707  0.83512737     0.08700
C1375       C  0.40214573  0.49294045  0.84015581    -0.54900
C1376       C  0.41817338  0.48859089  0.82738310     0.09200
H1377       H  0.35448194  0.46715148  0.79776578     0.13700
H1378       H  0.41874131  0.46006369  0.80322038    -0.00500
H1379       H  0.36109406  0.43609807  0.86314187     0.14000
H1380       H  0.40846917  0.51088652  0.84952913     0.13800
C1381       C  0.37576147  0.47784750  0.63526976     0.85600
C1382       C  0.40301577  0.50025408  0.63503384    -0.54600
C1383       C  0.41954103  0.49733195  0.64920192     0.08600
C1384       C  0.40760713  0.47222590  0.66288787     0.19500
C1385       C  0.37701887  0.45526228  0.62624592    -0.55300
C1386       C  0.39391369  0.45257974  0.64059185     0.08700
C1387       C  0.36965492  0.47279140  0.66507847    -0.54900
C1388       C  0.38678373  0.47076793  0.67963709     0.09200
H1389       H  0.40888697  0.51721896  0.62423604     0.13700
H1390       H  0.42142329  0.47005811  0.67418799    -0.00500
H1391       H  0.36571973  0.44265129  0.61012083     0.14000
H1392       H  0.35324536  0.47041941  0.67437480     0.13800
C1393       C  0.45434247  0.36706036  0.83610092     0.85600
C1394       C  0.47625336  0.39448462  0.83777754    -0.54600
C1395       C  0.47243761  0.41059079  0.82444228     0.08600
C1396       C  0.44673083  0.39811272  0.81080882     0.19500
C1397       C  0.43123085  0.36708240  0.84547679    -0.55300
C1398       C  0.42762043  0.38355746  0.83226388     0.08700
C1399       C  0.44978858  0.36189842  0.80572670    -0.54900
C1400       C  0.44569143  0.37820942  0.79260618     0.09200
H1401       H  0.49418958  0.40046036  0.84720425     0.13700
H1402       H  0.44348267  0.41155318  0.80061608    -0.00500
H1403       H  0.41936512  0.35580354  0.86152414     0.14000
H1404       H  0.45169381  0.34836040  0.79485877     0.13800
C1405       C  0.46786479  0.38230152  0.63498187     0.85600
C1406       C  0.46315747  0.37606552  0.66480609    -0.54600
C1407       C  0.45989490  0.39229905  0.67944791     0.08600
C1408       C  0.46147776  0.41320543  0.66293568     0.19500
C1409       C  0.44517663  0.38351025  0.62580715    -0.55300
C1410       C  0.44202081  0.39970891  0.64059271     0.08700
C1411       C  0.49025384  0.40938969  0.63531964    -0.54900
C1412       C  0.48698827  0.42545253  0.64967154     0.09200
H1413       H  0.46280931  0.36073900  0.67425398     0.13700
H1414       H  0.45845807  0.42642069  0.67402038    -0.00500
H1415       H  0.43301939  0.37287088  0.60910158     0.14000
H1416       H  0.50779447  0.41536647  0.62554916     0.13800
C1417       C  0.89750508  0.53085390  0.83290466     0.85600
C1418       C  0.90580204  0.51226658  0.83344159    -0.54600
C1419       C  0.92685926  0.51923460  0.81951264     0.08600
C1420       C  0.93740916  0.54402260  0.80545071     0.19500
C1421       C  0.92150251  0.55563810  0.84286538    -0.55300
C1422       C  0.94222474  0.56233152  0.82798304     0.08700
C1423       C  0.89510437  0.53536321  0.80359753    -0.54900
C1424       C  0.91557707  0.54150931  0.78933731     0.09200
H1425       H  0.89633944  0.49539155  0.84508005     0.13700
H1426       H  0.95434585  0.54971268  0.79372752    -0.00500
H1427       H  0.92290449  0.56597732  0.86062115     0.14000
H1428       H  0.87821357  0.53282342  0.79459480     0.13800
C1429       C  0.90900411  0.53642082  0.63249732     0.85600
C1430       C  0.90576436  0.54281945  0.66073642    -0.54600
C1431       C  0.92543431  0.54973059  0.67721240     0.08600
C1432       C  0.94764765  0.55067228  0.66396144     0.19500
C1433       C  0.93334782  0.56048453  0.62332722    -0.55300
C1434       C  0.95370231  0.56797668  0.64010142     0.08700
C1435       C  0.91704906  0.51762736  0.63469915    -0.54900
C1436       C  0.93697056  0.52480665  0.65120092     0.09200
H1437       H  0.88833144  0.54013170  0.66779802     0.13700
H1438       H  0.96369500  0.55606804  0.67763066    -0.00500
H1439       H  0.93502049  0.56988785  0.60495675     0.14000
H1440       H  0.90733771  0.49968731  0.62433366     0.13800
C1441       C  0.08753024  0.61354073  0.83110504     0.85600
C1442       C  0.09060065  0.62085031  0.80164763    -0.54600
C1443       C  0.06963108  0.60660084  0.78595990     0.08600
C1444       C  0.04718738  0.58602037  0.80151744     0.19500
C1445       C  0.06484374  0.61384616  0.84048587    -0.55300
C1446       C  0.04371561  0.59934139  0.82537416     0.08700
C1447       C  0.07828392  0.58565032  0.82928563    -0.54900
C1448       C  0.05738352  0.57121759  0.81385265     0.09200
H1449       H  0.10852842  0.63402844  0.79305883     0.13700
H1450       H  0.02995438  0.57407627  0.78932927    -0.00500
H1451       H  0.06517725  0.62388479  0.85812919     0.14000
H1452       H  0.08906891  0.57832651  0.83709128     0.13800
C1453       C  0.10016231  0.62322559  0.62838289     0.85600
C1454       C  0.09180067  0.59578207  0.62428444    -0.54600
C1455       C  0.06992894  0.57878579  0.63583636     0.08600
C1456       C  0.05824916  0.59060683  0.65140472     0.19500
C1457       C  0.07750838  0.62440509  0.61956333    -0.55300
C1458       C  0.05561277  0.60723686  0.63132030     0.08700
C1459       C  0.10103686  0.62584621  0.65896589    -0.54900
C1460       C  0.07912355  0.60867375  0.67101697     0.09200
H1461       H  0.10311255  0.59025424  0.61405964     0.13700
H1462       H  0.04044221  0.57666186  0.66101360    -0.00500
H1463       H  0.07886867  0.63800877  0.60570273     0.14000
H1464       H  0.11738103  0.63869478  0.67069473     0.13800
C1465       C  0.90115105  0.39361073  0.83838209     0.85600
C1466       C  0.90219614  0.38934189  0.80849452    -0.54600
C1467       C  0.92501589  0.40502667  0.79695345     0.08600
C1468       C  0.94466134  0.42378184  0.81736475     0.19500
C1469       C  0.92261512  0.39154014  0.85036731    -0.55300
C1470       C  0.94519276  0.40743063  0.83897188     0.08700
C1471       C  0.91070331  0.42123742  0.84157268    -0.54900
C1472       C  0.93319551  0.43702322  0.83054976     0.09200
H1473       H  0.88571509  0.37508653  0.79756243     0.13700
H1474       H  0.96369091  0.43687619  0.81052540    -0.00500
H1475       H  0.92076637  0.37887752  0.86564919     0.14000
H1476       H  0.89990442  0.42781451  0.85096089     0.13800
C1477       C  0.89748785  0.39140385  0.64064114     0.85600
C1478       C  0.90739815  0.41944744  0.64153858    -0.54600
C1479       C  0.92973593  0.43395172  0.65442372     0.08600
C1480       C  0.94113463  0.41942691  0.66439318     0.19500
C1481       C  0.91912141  0.39096041  0.62718257    -0.55300
C1482       C  0.94167286  0.40521446  0.64014706     0.08700
C1483       C  0.89814208  0.38488117  0.66981883    -0.54900
C1484       C  0.92106088  0.39918132  0.68241062     0.09200
H1485       H  0.89736729  0.42732926  0.63306990     0.13700
H1486       H  0.96013597  0.43161761  0.67321913    -0.00500
H1487       H  0.91768796  0.38182883  0.60851569     0.14000
H1488       H  0.88122436  0.37128309  0.67985675     0.13800
C1489       C  0.09174985  0.47526832  0.82555343     0.85600
C1490       C  0.08781531  0.49660888  0.81875589    -0.54600
C1491       C  0.06671549  0.48945271  0.80417778     0.08600
C1492       C  0.05093212  0.46148322  0.79796256     0.19500
C1493       C  0.06743052  0.45669080  0.83993297    -0.55300
C1494       C  0.04618743  0.44935211  0.82540035     0.08700
C1495       C  0.08991017  0.46271075  0.79889785    -0.54900
C1496       C  0.06913670  0.45626657  0.78378547     0.09200
H1497       H  0.10020203  0.51573802  0.82581185     0.13700
H1498       H  0.03356615  0.45591756  0.78654788    -0.00500
H1499       H  0.06645050  0.45141772  0.86038004     0.14000
H1500       H  0.10535335  0.46172608  0.79137434     0.13800
C1501       C  0.08968621  0.46818139  0.62484174     0.85600
C1502       C  0.09107188  0.46284061  0.65439921    -0.54600
C1503       C  0.07264353  0.46154193  0.66938925     0.08600
C1504       C  0.05365296  0.46447620  0.65353541     0.19500
C1505       C  0.06308856  0.44664196  0.61594869    -0.55300
C1506       C  0.04436600  0.44512803  0.63087474     0.08700
C1507       C  0.08827618  0.49155419  0.62541501    -0.54900
C1508       C  0.06938531  0.48957653  0.64000782     0.09200
H1509       H  0.10500636  0.46025116  0.66346130     0.13700
H1510       H  0.03824329  0.46289617  0.66544417    -0.00500
H1511       H  0.05937345  0.43425167  0.59920769     0.14000
H1512       H  0.10100239  0.50831404  0.61452486     0.13800
In1513     In  0.44402667  0.67331379  0.55333858     1.36900
C1514       C  0.44686584  0.67707889  0.50111033     0.76700
O1515       O  0.41968823  0.63226962  0.54361999    -0.61700
O1516       O  0.40563100  0.64706020  0.57085808    -0.52600
C1517       C  0.47623683  0.66857843  0.58316868     0.69400
O1518       O  0.47689094  0.66926887  0.55831287    -0.47500
C1519       C  0.44820471  0.71689802  0.56112738     0.74100
O1520       O  0.46464583  0.67976856  0.51533385    -0.59300
O1521       O  0.42867491  0.69631111  0.56650912    -0.49400
O1522       O  0.42778046  0.67256154  0.51355104    -0.55800
C1523       C  0.40165258  0.62828423  0.55771150     0.84300
O1524       O  0.45987813  0.67170381  0.59299827    -0.57700
O1525       O  0.46643384  0.71544869  0.55433667    -0.61000
In1526     In  0.44666047  0.78028553  0.55040306     1.36900
C1527       C  0.44871618  0.74020010  0.56001416     0.76700
O1528       O  0.40840713  0.76720083  0.56649080    -0.61700
O1529       O  0.42512787  0.79801696  0.54062940    -0.52600
C1530       C  0.48049951  0.81762837  0.58210337     0.69400
O1531       O  0.45968410  0.79979478  0.58993390    -0.47500
C1532       C  0.44709672  0.77956317  0.49800695     0.74100
O1533       O  0.46707939  0.76016251  0.55132811    -0.59300
O1534       O  0.42984881  0.76207048  0.51107516    -0.49400
O1535       O  0.42994619  0.74123353  0.56536531    -0.55800
C1536       C  0.40615113  0.78281283  0.55363548     0.84300
O1537       O  0.48419492  0.81600410  0.55793660    -0.57700
O1538       O  0.46453885  0.79719255  0.51169434    -0.61000
In1539     In  0.44561845  0.67343960  0.91816438     1.36900
C1540       C  0.44894685  0.71628426  0.90885323     0.76700
O1541       O  0.40802110  0.64663290  0.89778693    -0.61700
O1542       O  0.42183034  0.63240901  0.92611719    -0.52600
C1543       C  0.47985397  0.66946924  0.89226505     0.69400
O1544       O  0.46488069  0.67367240  0.88045843    -0.47500
C1545       C  0.44581752  0.67607893  0.97063010     0.74100
O1546       O  0.46678047  0.71546441  0.91880348    -0.59300
O1547       O  0.42690829  0.67046251  0.95654710    -0.49400
O1548       O  0.43021250  0.69540549  0.90170984    -0.55800
C1549       C  0.40405331  0.62805441  0.91083537     0.84300
O1550       O  0.47772319  0.66831972  0.91699425    -0.57700
O1551       O  0.46504442  0.68137668  0.95792291    -0.61000
In1552     In  0.44481523  0.77833644  0.91661789     1.36900
C1553       C  0.44885724  0.73926091  0.90844273     0.76700
O1554       O  0.46429273  0.79399755  0.95573309    -0.61700
O1555       O  0.42757136  0.76137064  0.95556400    -0.52600
C1556       C  0.48005000  0.81861541  0.89148402     0.69400
O1557       O  0.46558225  0.79812741  0.87944334    -0.47500
C1558       C  0.40309152  0.77849975  0.90773274     0.74100
O1559       O  0.46626096  0.75943519  0.91875353    -0.59300
O1560       O  0.42105198  0.79432582  0.92225441    -0.49400
O1561       O  0.43032053  0.73976562  0.90017931    -0.55800
C1562       C  0.44630702  0.77764110  0.96901912     0.84300
O1563       O  0.47662233  0.81782603  0.91596873    -0.57700
O1564       O  0.40678485  0.76307016  0.89642556    -0.61000
In1565     In  0.22372744  0.55623757  0.54466665     1.36900
C1566       C  0.26396640  0.55434376  0.55575427     0.76700
O1567       O  0.21301547  0.53680776  0.50480396    -0.61700
O1568       O  0.24012792  0.57571352  0.50629476    -0.52600
C1569       C  0.18230525  0.52032787  0.56851802     0.69400
O1570       O  0.20223643  0.53539398  0.58128694    -0.47500
C1571       C  0.22305610  0.59756468  0.55141824     0.74100
O1572       O  0.24479364  0.53692103  0.54389467    -0.59300
O1573       O  0.20674656  0.57891411  0.53798580    -0.49400
O1574       O  0.26173116  0.57168574  0.56423762    -0.55800
C1575       C  0.22724936  0.55634391  0.49214012     0.84300
O1576       O  0.18388497  0.52375414  0.54398522    -0.57700
O1577       O  0.23881405  0.59452501  0.56325424    -0.61000
In1578     In  0.33257937  0.56190961  0.54916418     1.36900
C1579       C  0.28783351  0.55566848  0.55660235     0.76700
O1580       O  0.35806451  0.60024277  0.56835063    -0.61700
O1581       O  0.37411291  0.58602193  0.54308261    -0.52600
C1582       C  0.33685307  0.52819249  0.57607931     0.69400
O1583       O  0.33344518  0.54389152  0.58727897    -0.47500
C1584       C  0.33137040  0.56255102  0.49671712     0.74100
O1585       O  0.29044727  0.53953498  0.54535032    -0.59300
O1586       O  0.33567980  0.58095257  0.51075575    -0.49400
O1587       O  0.30784485  0.57413505  0.56609756    -0.55800
C1588       C  0.37746181  0.60412195  0.55695343     0.84300
O1589       O  0.33730861  0.52945506  0.55124599    -0.57700
O1590       O  0.32708870  0.54374140  0.50944067    -0.61000
In1591     In  0.22736453  0.55920131  0.91232512     1.36900
C1592       C  0.26786789  0.55717243  0.90494017     0.76700
O1593       O  0.24005363  0.59687459  0.89460225    -0.61700
O1594       O  0.20964826  0.58058337  0.92112389    -0.52600
C1595       C  0.18771614  0.52735482  0.88241809     0.69400
O1596       O  0.20889268  0.54256373  0.87284185    -0.47500
C1597       C  0.22813861  0.55743945  0.96445879     0.74100
O1598       O  0.24751625  0.53896157  0.91318847    -0.59300
O1599       O  0.24231688  0.57721310  0.95206357    -0.49400
O1600       O  0.26694481  0.57569930  0.89827461    -0.55800
C1601       C  0.22400298  0.59889287  0.90696992     0.84300
O1602       O  0.18753167  0.52691337  0.90729159    -0.57700
O1603       O  0.21399327  0.53840561  0.95019465    -0.61000
In1604     In  0.33487762  0.56171157  0.91587530     1.36900
C1605       C  0.33065948  0.56006711  0.96780705     0.76700
O1606       O  0.37579020  0.58692808  0.92636528    -0.61700
O1607       O  0.36152088  0.59861422  0.89576194    -0.52600
C1608       C  0.33845400  0.52631973  0.89178865     0.69400
O1609       O  0.34178609  0.53100378  0.91619486    -0.47500
C1610       C  0.29131913  0.55767387  0.90578894     0.74100
O1611       O  0.32653435  0.54159422  0.95408924    -0.59300
O1612       O  0.31205642  0.57624687  0.89885119    -0.49400
O1613       O  0.33635878  0.57926738  0.95495002    -0.55800
C1614       C  0.38002443  0.60377240  0.91040463     0.84300
O1615       O  0.33326634  0.54006232  0.87916496    -0.57700
O1616       O  0.29266673  0.54041408  0.91584117    -0.61000
In1617     In  0.33851266  0.77714514  0.54257563     1.36900
C1618       C  0.33631453  0.77399607  0.49000136     0.76700
O1619       O  0.38020935  0.79662362  0.53735127    -0.61700
O1620       O  0.36294201  0.76610058  0.56327109    -0.52600
C1621       C  0.34008704  0.81563864  0.56685593     0.69400
O1622       O  0.34229482  0.81416568  0.54237064    -0.47500
C1623       C  0.29455184  0.73525048  0.55167170     0.74100
O1624       O  0.33733965  0.79155236  0.50277243    -0.59300
O1625       O  0.31497796  0.73890326  0.56037176    -0.49400
O1626       O  0.33616267  0.75765617  0.50403309    -0.55800
C1627       C  0.38268295  0.78217201  0.55194477     0.84300
O1628       O  0.33695536  0.79709805  0.57938617    -0.57700
O1629       O  0.29640127  0.75364912  0.54019376    -0.61000
In1630     In  0.22985488  0.66557993  0.54370879     1.36900
C1631       C  0.23115574  0.66723258  0.49143207     0.76700
O1632       O  0.25096125  0.70735024  0.54222661    -0.61700
O1633       O  0.26933922  0.69129101  0.55999524    -0.52600
C1634       C  0.19042094  0.65955744  0.56917726     0.69400
O1635       O  0.19163603  0.65884882  0.54443743    -0.47500
C1636       C  0.22461679  0.62145216  0.55095995     0.74100
O1637       O  0.21715344  0.67145051  0.50476735    -0.59300
O1638       O  0.24163068  0.64108994  0.56268350    -0.49400
O1639       O  0.24505341  0.66261188  0.50479382    -0.55800
C1640       C  0.27089759  0.71081901  0.55213197     0.84300
O1641       O  0.21023354  0.66472227  0.58134577    -0.57700
O1642       O  0.20985213  0.62426141  0.53687963    -0.61000
In1643     In  0.33481873  0.77248444  0.91103628     1.36900
C1644       C  0.33600769  0.77331783  0.96345053     0.76700
O1645       O  0.29312718  0.75061421  0.91596583    -0.61700
O1646       O  0.30859238  0.73356837  0.89420958    -0.52600
C1647       C  0.33481789  0.80744576  0.88182893     0.69400
O1648       O  0.33239165  0.80603828  0.90653856    -0.47500
C1649       C  0.37926457  0.77730964  0.90620218     0.74100
O1650       O  0.33949404  0.79152263  0.95006273    -0.59300
O1651       O  0.35971078  0.75994759  0.89464210    -0.49400
O1652       O  0.33178059  0.75458797  0.95008067    -0.55800
C1653       C  0.28931985  0.73138562  0.90410506     0.84300
O1654       O  0.33691223  0.79048183  0.87170068    -0.57700
O1655       O  0.37637749  0.79290767  0.91828289    -0.61000
In1656     In  0.22379352  0.66331391  0.91355028     1.36900
C1657       C  0.22787879  0.66665594  0.96579008     0.76700
O1658       O  0.20815260  0.62316407  0.92181125    -0.61700
O1659       O  0.23702456  0.64039844  0.89364099    -0.52600
C1660       C  0.18144122  0.65355876  0.88947803     0.69400
O1661       O  0.18383682  0.65235765  0.91399347    -0.47500
C1662       C  0.26489386  0.70771065  0.90436310     0.74100
O1663       O  0.21326682  0.67073263  0.95306976    -0.59300
O1664       O  0.26123716  0.68781557  0.89435570    -0.49400
O1665       O  0.24099983  0.66167852  0.95181582    -0.55800
C1666       C  0.22279325  0.62123213  0.90690078     0.84300
O1667       O  0.20137166  0.66130810  0.87687945    -0.57700
O1668       O  0.24658297  0.70522744  0.91679915    -0.61000
In1669     In  0.55234507  0.33872065  0.55194998     1.36900
C1670       C  0.54947467  0.33371898  0.49959409     0.76700
O1671       O  0.57630741  0.37921948  0.54289467    -0.61700
O1672       O  0.58909849  0.36597191  0.57357381    -0.52600
C1673       C  0.51797384  0.34328077  0.57693506     0.69400
O1674       O  0.52177456  0.34620648  0.55249045    -0.47500
C1675       C  0.55084359  0.29668113  0.56080697     0.74100
O1676       O  0.53045923  0.32637943  0.51357406    -0.59300
O1677       O  0.57044928  0.31794767  0.56453781    -0.49400
O1678       O  0.56983328  0.34294162  0.51236776    -0.55800
C1679       C  0.59348797  0.38407077  0.55930616     0.84300
O1680       O  0.53171029  0.33752983  0.58895501    -0.57700
O1681       O  0.53160955  0.29692179  0.55501955    -0.61000
In1682     In  0.55232725  0.23310542  0.55068129     1.36900
C1683       C  0.55087398  0.27364102  0.56024317     0.76700
O1684       O  0.58911448  0.24361780  0.57109831    -0.61700
O1685       O  0.57428444  0.21617345  0.54043113    -0.52600
C1686       C  0.51676381  0.19439734  0.57771630     0.69400
O1687       O  0.53487084  0.21356550  0.58903198    -0.47500
C1688       C  0.55084806  0.23330976  0.00074380     0.74100
O1689       O  0.53177928  0.25286540  0.55356516    -0.59300
O1690       O  0.57011161  0.24861699  0.01418969    -0.49400
O1691       O  0.57041412  0.27337586  0.56389068    -0.55800
C1692       C  0.59218213  0.22941935  0.55633054     0.84300
O1693       O  0.51684694  0.19552732  0.55287314    -0.57700
O1694       O  0.53258716  0.21740791  0.51150392    -0.61000
In1695     In  0.54579619  0.33109222  0.91760818     1.36900
C1696       C  0.54381453  0.28828524  0.90949249     0.76700
O1697       O  0.58296931  0.35822936  0.89814489    -0.61700
O1698       O  0.56896381  0.37248982  0.92601020    -0.52600
C1699       C  0.50850186  0.33144075  0.89231413     0.69400
O1700       O  0.52492715  0.32996097  0.88005604    -0.47500
C1701       C  0.54735531  0.33129571  0.97000145     0.74100
O1702       O  0.52703290  0.28936403  0.92128426    -0.59300
O1703       O  0.56542177  0.33477920  0.95626078    -0.49400
O1704       O  0.56063249  0.30868054  0.89985385    -0.55800
C1705       C  0.58676747  0.37689385  0.91136392     0.84300
O1706       O  0.51092919  0.33194139  0.91704012    -0.57700
O1707       O  0.52831846  0.32698522  0.95699233    -0.61000
In1708     In  0.55060217  0.22779854  0.91970087     1.36900
C1709       C  0.54496297  0.26577018  0.90970527     0.76700
O1710       O  0.53143268  0.21656399  0.95865998    -0.61700
O1711       O  0.56990759  0.24587276  0.95846726    -0.52600
C1712       C  0.51675563  0.18401947  0.89682509     0.69400
O1713       O  0.52808372  0.20402137  0.88391909    -0.47500
C1714       C  0.59262992  0.22852024  0.91147939     0.74100
O1715       O  0.52805658  0.24564543  0.91971269    -0.59300
O1716       O  0.57605355  0.21430514  0.92746937    -0.49400
O1717       O  0.56387613  0.26568413  0.90240388    -0.55800
C1718       C  0.55068704  0.23210106  0.97190436     0.84300
O1719       O  0.52196578  0.18696021  0.92112741    -0.57700
O1720       O  0.58754361  0.24216072  0.89852086    -0.61000
In1721     In  0.76699162  0.34657879  0.55093016     1.36900
C1722       C  0.76736647  0.34569330  0.00227025     0.76700
O1723       O  0.74672123  0.30472310  0.55049753    -0.61700
O1724       O  0.72681591  0.32119646  0.56263825    -0.52600
C1725       C  0.80321590  0.35244160  0.58336218     0.69400
O1726       O  0.80350792  0.34963730  0.55870441    -0.47500
C1727       C  0.77125614  0.39043334  0.55621274     0.74100
O1728       O  0.78475247  0.34636870  0.51282140    -0.59300
O1729       O  0.75515624  0.37145234  0.56866136    -0.49400
O1730       O  0.75007206  0.34420351  0.51107349    -0.55800
C1731       C  0.72613052  0.30146596  0.55735354     0.84300
O1732       O  0.78356007  0.35056868  0.59155960    -0.57700
O1733       O  0.78575813  0.38724993  0.54245706    -0.61000
In1734     In  0.65943620  0.23428294  0.54715860     1.36900
C1735       C  0.66362232  0.23710473  0.49509211     0.76700
O1736       O  0.61900097  0.21833472  0.53719049    -0.61700
O1737       O  0.63397325  0.24220913  0.57088102    -0.52600
C1738       C  0.65684064  0.19549318  0.57074481     0.69400
O1739       O  0.64985608  0.19503015  0.54725637    -0.47500
C1740       C  0.70273921  0.27689604  0.55668828     0.74100
O1741       O  0.66388754  0.22048583  0.50811081    -0.59300
O1742       O  0.68195477  0.27386332  0.56226351    -0.49400
O1743       O  0.66178374  0.25267942  0.50867857    -0.55800
C1744       C  0.61544682  0.22961263  0.55536487     0.84300
O1745       O  0.66506512  0.21609072  0.58262943    -0.57700
O1746       O  0.70154575  0.25758769  0.54827972    -0.61000
In1747     In  0.76889499  0.34577305  0.92092556     1.36900
C1748       C  0.76784829  0.34509507  0.97339730     0.76700
O1749       O  0.78653849  0.38685106  0.92800766    -0.61700
O1750       O  0.75340270  0.36749586  0.90419388    -0.52600
C1751       C  0.80643007  0.35138541  0.89190785     0.69400
O1752       O  0.80513472  0.34782032  0.91643334    -0.47500
C1753       C  0.72914799  0.30065241  0.91018636     0.74100
O1754       O  0.78616501  0.34776685  0.96076915    -0.59300
O1755       O  0.73116210  0.32012307  0.90156604    -0.49400
O1756       O  0.75001447  0.34233827  0.95925264    -0.55800
C1757       C  0.76987261  0.38773997  0.91522935     0.84300
O1758       O  0.78808784  0.35146778  0.88216254    -0.57700
O1759       O  0.74820283  0.30408601  0.92242311    -0.61000
In1760     In  0.66107513  0.23525971  0.91650989     1.36900
C1761       C  0.66346733  0.23827155  0.96876746     0.76700
O1762       O  0.70268112  0.25820278  0.92192840    -0.61700
O1763       O  0.68594591  0.27279115  0.89792526    -0.52600
C1764       C  0.65859938  0.19709677  0.89099261     0.69400
O1765       O  0.65554516  0.19763921  0.91543965    -0.47500
C1766       C  0.61647976  0.22986617  0.91019827     0.74100
O1767       O  0.66578804  0.22267187  0.95583849    -0.59300
O1768       O  0.63564166  0.24674554  0.89856748    -0.49400
O1769       O  0.66056105  0.25297077  0.95499278    -0.55800
C1770       C  0.70554159  0.27638675  0.90912667     0.84300
O1771       O  0.66287962  0.21637349  0.87912607    -0.57700
O1772       O  0.61982512  0.21495614  0.92285212    -0.61000
In1773     In  0.77065001  0.45460465  0.54937459     1.36900
C1774       C  0.73017345  0.45601670  0.55934325     0.76700
O1775       O  0.78185848  0.47420381  0.51037093    -0.61700
O1776       O  0.75375627  0.43542302  0.51074786    -0.52600
C1777       C  0.81234482  0.48745943  0.57627327     0.69400
O1778       O  0.79211571  0.47181552  0.58737131    -0.47500
C1779       C  0.77212368  0.41391914  0.55576614     0.74100
O1780       O  0.75077294  0.47523520  0.55318306    -0.59300
O1781       O  0.78611255  0.43109055  0.54016064    -0.49400
O1782       O  0.73099786  0.43693427  0.56276944    -0.55800
C1783       C  0.76693057  0.45461487  0.49724168     0.84300
O1784       O  0.81067358  0.48737497  0.55143948    -0.57700
O1785       O  0.75807469  0.41800048  0.56936180    -0.61000
In1786     In  0.66215732  0.44993362  0.55211195     1.36900
C1787       C  0.70645684  0.45494734  0.55970702     0.76700
O1788       O  0.63660953  0.41303360  0.57250425    -0.61700
O1789       O  0.62080699  0.42554956  0.54445059    -0.52600
C1790       C  0.65996599  0.48400082  0.58106853     0.69400
O1791       O  0.66060409  0.46628064  0.59119788    -0.47500
C1792       C  0.66148611  0.44892496  0.49948168     0.74100
O1793       O  0.70460883  0.47287170  0.55289496    -0.59300
O1794       O  0.65978415  0.43163030  0.51311518    -0.49400
O1795       O  0.68589115  0.43514589  0.56447306    -0.55800
C1796       C  0.61740298  0.40834710  0.55946761     0.84300
O1797       O  0.66099855  0.48441535  0.55621992    -0.57700
O1798       O  0.66402294  0.46705711  0.51269310    -0.61000
In1799     In  0.76481771  0.44947094  0.91873302     1.36900
C1800       C  0.72313798  0.44908836  0.90961237     0.76700
O1801       O  0.75245643  0.41147241  0.90195330    -0.61700
O1802       O  0.78368866  0.42921687  0.92864317    -0.52600
C1803       C  0.80364144  0.48166992  0.89002085     0.69400
O1804       O  0.78297905  0.46485545  0.87967780    -0.47500
C1805       C  0.76502657  0.45364419  0.97059699     0.74100
O1806       O  0.74348726  0.46839616  0.91699643    -0.59300
O1807       O  0.75164381  0.43313600  0.95838288    -0.49400
O1808       O  0.72457410  0.43050578  0.90449452    -0.55800
C1809       C  0.76888895  0.41016233  0.91480920     0.84300
O1810       O  0.80372596  0.48264584  0.91485437    -0.57700
O1811       O  0.77788403  0.47235832  0.95624842    -0.61000
In1812     In  0.65569222  0.44362606  0.91837770     1.36900
C1813       C  0.65964846  0.44749404  0.97100424     0.76700
O1814       O  0.61453942  0.41891274  0.92687677    -0.61700
O1815       O  0.62954157  0.40570836  0.89887949    -0.52600
C1816       C  0.65127282  0.47557740  0.88838938     0.69400
O1817       O  0.65207015  0.47661739  0.91327192    -0.47500
C1818       C  0.69929451  0.44773722  0.90980955     0.74100
O1819       O  0.66206070  0.46479242  0.95676102    -0.59300
O1820       O  0.67846183  0.42779448  0.90540558    -0.49400
O1821       O  0.65547461  0.42842684  0.95839622    -0.55800
C1822       C  0.61069785  0.40127751  0.91180832     0.84300
O1823       O  0.65342596  0.45848536  0.87877669    -0.57700
O1824       O  0.69787361  0.46594323  0.91679837    -0.61000
C1825       C  0.52919028  0.91235570  0.83784890     0.85600
C1826       C  0.53140298  0.91163303  0.80750476    -0.54600
C1827       C  0.53280590  0.93111825  0.79484560     0.08600
C1828       C  0.53287947  0.95030318  0.81343127     0.19500
C1829       C  0.55260602  0.93797182  0.84622826    -0.55300
C1830       C  0.55421854  0.95776574  0.83357344     0.08700
C1831       C  0.50678766  0.91514669  0.84142363    -0.54900
C1832       C  0.50881742  0.93511747  0.82925796     0.09200
H1833       H  0.53195820  0.89750695  0.79616814     0.13700
H1834       H  0.53442329  0.96636456  0.80299572    -0.00500
H1835       H  0.56648908  0.94023139  0.86071295     0.14000
H1836       H  0.48996774  0.90147973  0.85167459     0.13800
C1837       C  0.53343421  0.91076980  0.63922572     0.85600
C1838       C  0.50914632  0.91072962  0.63894290    -0.54600
C1839       C  0.51062135  0.93052802  0.65140016     0.08600
C1840       C  0.53650230  0.94869198  0.66398826     0.19500
C1841       C  0.55270978  0.93655287  0.62734339    -0.55300
C1842       C  0.55460985  0.95625984  0.64089330     0.08700
C1843       C  0.54091531  0.91327507  0.66865870    -0.54900
C1844       C  0.54185872  0.93260182  0.68169285     0.09200
H1845       H  0.49219370  0.89645897  0.62852044     0.13700
H1846       H  0.53806040  0.96492430  0.67434533    -0.00500
H1847       H  0.56252701  0.93972906  0.60908819     0.14000
H1848       H  0.54277352  0.89942552  0.67895778     0.13800
C1849       C  0.62385673  0.10614858  0.83214601     0.85600
C1850       C  0.59629136  0.09818546  0.83327910    -0.54600
C1851       C  0.57983199  0.07715683  0.81919047     0.08600
C1852       C  0.59262989  0.06622822  0.80384381     0.19500
C1853       C  0.62382270  0.08281938  0.83998110    -0.55300
C1854       C  0.60755001  0.06200880  0.82513601     0.08700
C1855       C  0.62937746  0.10849143  0.80225763    -0.54900
C1856       C  0.61253109  0.08813988  0.78727458     0.09200
H1857       H  0.59017802  0.10845928  0.84467994     0.13700
H1858       H  0.57927368  0.04906355  0.79229293    -0.00500
H1859       H  0.63480411  0.08247552  0.85641661     0.14000
H1860       H  0.64488432  0.12456919  0.79298225     0.13800
C1861       C  0.62134807  0.10565141  0.62800078     0.85600
C1862       C  0.62897773  0.10726229  0.65749946    -0.54600
C1863       C  0.61146515  0.08773447  0.67227796     0.08600
C1864       C  0.58791136  0.06827296  0.65620101     0.19500
C1865       C  0.61587902  0.07996159  0.61867459    -0.55300
C1866       C  0.59794637  0.06043018  0.63304810     0.08700
C1867       C  0.59580062  0.10279159  0.62918123    -0.54900
C1868       C  0.57826056  0.08333976  0.64339065     0.09200
H1869       H  0.64607575  0.12239127  0.66664197     0.13700
H1870       H  0.57350059  0.05233897  0.66787140    -0.00500
H1871       H  0.62492036  0.07739467  0.60196795     0.14000
H1872       H  0.59177160  0.11534587  0.61919565     0.13800
C1873       C  0.36871217  0.89752600  0.82450631     0.85600
C1874       C  0.39534151  0.90335389  0.82880472    -0.54600
C1875       C  0.41367487  0.92399729  0.81652595     0.08600
C1876       C  0.40390660  0.93750411  0.80070482     0.19500
C1877       C  0.37012942  0.92180576  0.83256862    -0.55300
C1878       C  0.38903081  0.94270519  0.82057290     0.08700
C1879       C  0.36541607  0.89674787  0.79407131    -0.54900
C1880       C  0.38409790  0.91741204  0.78167718     0.09200
H1881       H  0.39936948  0.89168557  0.84063694     0.13700
H1882       H  0.41892741  0.95457450  0.79092101    -0.00500
H1883       H  0.35780333  0.92266612  0.84662339     0.14000
H1884       H  0.34967638  0.88177744  0.78292867     0.13800
C1885       C  0.37623165  0.90721296  0.62326441     0.85600
C1886       C  0.37033291  0.90607315  0.65293963    -0.54600
C1887       C  0.38867324  0.92551091  0.66780986     0.08600
C1888       C  0.41114463  0.94497653  0.65169825     0.19500
C1889       C  0.38106447  0.93282397  0.61502988    -0.55300
C1890       C  0.39972859  0.95257012  0.62960840     0.08700
C1891       C  0.40195517  0.91027721  0.62322357    -0.54900
C1892       C  0.42033583  0.93011186  0.63738888     0.09200
H1893       H  0.35364805  0.89125731  0.66230378     0.13700
H1894       H  0.42592855  0.96094213  0.66379549    -0.00500
H1895       H  0.37085554  0.93519944  0.59919334     0.14000
H1896       H  0.40508658  0.89702068  0.61327466     0.13800
C1897       C  0.46765081  0.09234598  0.83681262     0.85600
C1898       C  0.46811607  0.09685668  0.80685581    -0.54600
C1899       C  0.46544246  0.07789668  0.79139249     0.08600
C1900       C  0.46266140  0.05601957  0.80701529     0.19500
C1901       C  0.44327721  0.06687137  0.84144068    -0.55300
C1902       C  0.44061611  0.04798900  0.82560594     0.08700
C1903       C  0.48878517  0.08734230  0.84021735    -0.54900
C1904       C  0.48598028  0.06804628  0.82528895     0.09200
H1905       H  0.47192907  0.11397742  0.79814643     0.13700
H1906       H  0.46047143  0.04057008  0.79438076    -0.00500
H1907       H  0.43009523  0.06379937  0.85679959     0.14000
H1908       H  0.50541038  0.09902631  0.85247025     0.13800
C1909       C  0.46535265  0.10276130  0.63471942     0.85600
C1910       C  0.48846182  0.10111749  0.63140932    -0.54600
C1911       C  0.48728653  0.08177247  0.64392640     0.08600
C1912       C  0.46339253  0.06591943  0.65963050     0.19500
C1913       C  0.44271737  0.07649670  0.62631079    -0.55300
C1914       C  0.44205063  0.05722750  0.63916847     0.08700
C1915       C  0.46286046  0.10353445  0.66519241    -0.54900
C1916       C  0.46203593  0.08430438  0.67795547     0.09200
H1917       H  0.50469263  0.11444814  0.62012014     0.13700
H1918       H  0.46283073  0.05039627  0.67023327    -0.00500
H1919       H  0.42947945  0.07326721  0.61057369     0.14000
H1920       H  0.46173242  0.11746335  0.67625781     0.13800
C1921       C  0.46614501  0.07899546  0.76221295    -0.07000
C1922       C  0.44560392  0.05991632  0.74782247    -0.18100
C1923       C  0.44345960  0.06156656  0.72049578     0.10200
C1924       C  0.46242900  0.08254852  0.70706271    -0.06900
C1925       C  0.48353564  0.10118466  0.72129299    -0.18100
C1926       C  0.48582031  0.09941455  0.74862678     0.10200
S1927       S  0.41554635  0.03692032  0.70408367    -0.33100
S1928       S  0.51479624  0.12297034  0.76470630    -0.33100
H1929       H  0.51450380  0.10735915  0.78440493     0.28300
H1930       H  0.41351470  0.05297195  0.68685780     0.28300
H1931       H  0.43067681  0.04406095  0.75805859     0.18800
H1932       H  0.49869561  0.11678956  0.71088447     0.18900
C1933       C  0.40873852  0.97915224  0.62515809    -0.07000
C1934       C  0.39271942  0.98767150  0.62978204    -0.18100
C1935       C  0.40217928  0.01336278  0.63232012     0.10200
C1936       C  0.42824481  0.03083241  0.62961309    -0.06900
C1937       C  0.44341111  0.02205311  0.62218678    -0.18100
C1938       C  0.43421190  0.99671199  0.62024133     0.10200
S1939       S  0.38005827  0.02174099  0.64091706    -0.33100
S1940       S  0.45573359  0.98741015  0.61228691    -0.33100
H1941       H  0.47802417  0.01120956  0.61329271     0.28300
H1942       H  0.39619724  0.04769956  0.64083385     0.28300
H1943       H  0.37307088  0.97424279  0.63332556     0.18800
H1944       H  0.46321592  0.03516549  0.61978027     0.18900
C1945       C  0.39701520  0.96864687  0.82767940    -0.07000
C1946       C  0.38834772  0.98083064  0.81223156    -0.18100
C1947       C  0.40037524  0.00695891  0.81342290     0.10200
C1948       C  0.42190410  0.02116781  0.82980470    -0.06900
C1949       C  0.42917247  0.00878366  0.84661591    -0.18100
C1950       C  0.41700680  0.98287172  0.84590848     0.10200
S1951       S  0.38818014  0.02109671  0.79276728    -0.33100
S1952       S  0.42974715  0.96966189  0.86711168    -0.33100
H1953       H  0.40751383  0.94627395  0.86917643     0.28300
H1954       H  0.39972338  0.04397846  0.80671350     0.28300
H1955       H  0.37300202  0.97009733  0.79820036     0.18800
H1956       H  0.44558617  0.01949728  0.85927407     0.18900
C1957       C  0.38584091  0.91965132  0.75251386    -0.07000
C1958       C  0.38982850  0.94143227  0.74087622    -0.18100
C1959       C  0.39089868  0.94402543  0.71332175     0.10200
C1960       C  0.38843143  0.92468150  0.69707601    -0.06900
C1961       C  0.38559637  0.90344032  0.70882565    -0.18100
C1962       C  0.38445595  0.90074970  0.73629457     0.10200
S1963       S  0.39421720  0.97175659  0.70005056    -0.33100
S1964       S  0.38321718  0.87405969  0.75034375    -0.33100
H1965       H  0.38141165  0.86183128  0.72631424     0.28300
H1966       H  0.37736741  0.95924566  0.67876296     0.28300
H1967       H  0.39136250  0.95617990  0.75328694     0.18800
H1968       H  0.38460379  0.88903968  0.69630496     0.18900
C1969       C  0.55232558  0.07765023  0.64407793    -0.07000
C1970       C  0.54121587  0.07775412  0.61994743    -0.18100
C1971       C  0.51906274  0.07731959  0.61901235     0.10200
C1972       C  0.50772818  0.07721806  0.64298574    -0.06900
C1973       C  0.51767302  0.07517754  0.66703719    -0.18100
C1974       C  0.54002305  0.07561401  0.66784722     0.10200
S1975       S  0.50706718  0.07755731  0.58646388    -0.33100
S1976       S  0.55380453  0.07619778  0.69932074    -0.33100
H1977       H  0.53845250  0.08095684  0.71475062     0.28300
H1978       H  0.48229752  0.06857084  0.59339304     0.28300
H1979       H  0.55042953  0.07904159  0.60149737     0.18800
H1980       H  0.50874070  0.07483727  0.68534839     0.18900
C1981       C  0.55245974  0.06683440  0.82009934    -0.07000
C1982       C  0.54205925  0.06511950  0.84497663    -0.18100
C1983       C  0.51892277  0.06268227  0.84741341     0.10200
C1984       C  0.50588223  0.06243107  0.82434907    -0.06900
C1985       C  0.51468108  0.06080686  0.79951142    -0.18100
C1986       C  0.53771995  0.06270056  0.79720521     0.10200
S1987       S  0.50800420  0.06113743  0.88065029    -0.33100
S1988       S  0.54889755  0.06221843  0.76485776    -0.33100
H1989       H  0.52532206  0.05055704  0.75198069     0.28300
H1990       H  0.48294360  0.05176991  0.87388843     0.28300
H1991       H  0.55274685  0.06708366  0.86275620     0.18800
H1992       H  0.50464247  0.06021469  0.78175224     0.18900
C1993       C  0.61239562  0.08833466  0.75774947    -0.07000
C1994       C  0.60745973  0.06699752  0.74369978    -0.18100
C1995       C  0.60804888  0.06659145  0.71599315     0.10200
C1996       C  0.61331348  0.08777425  0.70166627    -0.06900
C1997       C  0.61808947  0.10905293  0.71564842    -0.18100
C1998       C  0.61697302  0.10937205  0.74323507     0.10200
S1999       S  0.60314179  0.03899611  0.70004694    -0.33100
S2000       S  0.61887236  0.13624598  0.75804863    -0.33100
H2001       H  0.60043278  0.12253223  0.77698308     0.28300
H2002       H  0.62178524  0.05234857  0.68125502     0.28300
H2003       H  0.60345435  0.05059191  0.75431592     0.18800
H2004       H  0.62115758  0.12509370  0.70486074     0.18900
C2005       C  0.49021828  0.93527075  0.64806958    -0.07000
C2006       C  0.47965998  0.93177639  0.62261321    -0.18100
C2007       C  0.45818974  0.93215239  0.61808660     0.10200
C2008       C  0.44611063  0.93525945  0.63979402    -0.06900
C2009       C  0.45799669  0.94125377  0.66485278    -0.18100
C2010       C  0.48019983  0.94170412  0.66912720     0.10200
S2011       S  0.44773383  0.92869196  0.58397428    -0.33100
S2012       S  0.49408484  0.94861861  0.70187525    -0.33100
H2013       H  0.48287754  0.96133481  0.71069679     0.28300
H2014       H  0.43457646  0.94053414  0.58684425     0.28300
H2015       H  0.48815780  0.92841739  0.60594544     0.18800
H2016       H  0.44913756  0.94409181  0.68148944     0.18900
C2017       C  0.56806717  0.98221668  0.63141906    -0.07000
C2018       C  0.55307421  0.99107994  0.62341766    -0.18100
C2019       C  0.56297199  0.01652880  0.62116607     0.10200
C2020       C  0.58850649  0.03385612  0.62729501    -0.06900
C2021       C  0.60414351  0.02500072  0.63244179    -0.18100
C2022       C  0.59421999  0.99933593  0.63481074     0.10200
S2023       S  0.54183568  0.02563861  0.61095953    -0.33100
S2024       S  0.61579537  0.99046292  0.64458094    -0.33100
H2025       H  0.59978987  0.96457911  0.64152351     0.28300
H2026       H  0.56027894  0.04688039  0.59758038     0.28300
H2027       H  0.53311188  0.97807503  0.62018942     0.18800
H2028       H  0.62390035  0.03822113  0.63665935     0.18900
C2029       C  0.48744870  0.93836675  0.82748642    -0.07000
C2030       C  0.47965670  0.94060120  0.80214665    -0.18100
C2031       C  0.45604036  0.93701890  0.79782865     0.10200
C2032       C  0.44030106  0.93207006  0.81957016    -0.06900
C2033       C  0.44905147  0.93189570  0.84511979    -0.18100
C2034       C  0.47229827  0.93504009  0.84941487     0.10200
S2035       S  0.44539191  0.93583629  0.76428580    -0.33100
S2036       S  0.48052488  0.93365907  0.88338953    -0.33100
H2037       H  0.50591330  0.94361014  0.87938463     0.28300
H2038       H  0.46552415  0.93682175  0.75168645     0.28300
H2039       H  0.49120748  0.94306506  0.78537187     0.18800
H2040       H  0.43714980  0.92821968  0.86194839     0.18900
C2041       C  0.60078281  0.03660838  0.83202155    -0.07000
C2042       C  0.58489885  0.02526472  0.85342722    -0.18100
C2043       C  0.57196975  0.99944534  0.85667852     0.10200
C2044       C  0.57431716  0.98441631  0.83773351    -0.06900
C2045       C  0.59220207  0.99611231  0.81790632    -0.18100
C2046       C  0.60574881  0.02209769  0.81512753     0.10200
S2047       S  0.55140882  0.98677131  0.88426486    -0.33100
S2048       S  0.62838626  0.03556196  0.78918734    -0.33100
H2049       H  0.64263223  0.05964577  0.80059428     0.28300
H2050       H  0.55584701  0.96770866  0.88831430     0.28300
H2051       H  0.58131914  0.03639620  0.86674866     0.18800
H2052       H  0.59467348  0.98484293  0.80367141     0.18900
C2053       C  0.54017585  0.93298971  0.71075082    -0.07000
C2054       C  0.51911749  0.91272405  0.72239991    -0.18100
C2055       C  0.51535716  0.91241964  0.74955607     0.10200
C2056       C  0.53338013  0.93261106  0.76569691    -0.06900
C2057       C  0.55389307  0.95334091  0.75391872    -0.18100
C2058       C  0.55766442  0.95352914  0.72666122     0.10200
S2059       S  0.48685694  0.88600665  0.76214474    -0.33100
S2060       S  0.58595071  0.97953073  0.71365062    -0.33100
H2061       H  0.58878374  0.96560730  0.69392925     0.28300
H2062       H  0.48457767  0.89894109  0.78342032     0.28300
H2063       H  0.50518309  0.89725698  0.71010616     0.18800
H2064       H  0.56773514  0.96884901  0.76613229     0.18900
C2065       C  0.65572561  0.17481816  0.87772119    -0.07000
C2066       C  0.64143148  0.15179127  0.89030407    -0.18100
C2067       C  0.63350815  0.12926632  0.87696081     0.10200
C2068       C  0.63961270  0.12952976  0.84989704    -0.06900
C2069       C  0.65710966  0.15292129  0.83891596    -0.18100
C2070       C  0.66510527  0.17535820  0.85242369     0.10200
S2071       S  0.61315606  0.10050011  0.89420476    -0.33100
S2072       S  0.68690805  0.20398055  0.83601545    -0.33100
H2073       H  0.70036494  0.21661512  0.85930398     0.28300
H2074       H  0.61973578  0.11086161  0.91996866     0.28300
H2075       H  0.63483667  0.15123440  0.91012981     0.18800
H2076       H  0.66417034  0.15446311  0.81926824     0.18900
C2077       C  0.65390704  0.17298199  0.58316436    -0.07000
C2078       C  0.63780574  0.14986080  0.57052802    -0.18100
C2079       C  0.62945566  0.12739987  0.58343561     0.10200
C2080       C  0.63776898  0.12777611  0.60984486    -0.06900
C2081       C  0.65715671  0.15096801  0.62056705    -0.18100
C2082       C  0.66507886  0.17351618  0.60767672     0.10200
S2083       S  0.60555700  0.09880121  0.56682207    -0.33100
S2084       S  0.68894256  0.20272731  0.62311298    -0.33100
H2085       H  0.69432282  0.19259304  0.64482998     0.28300
H2086       H  0.59711467  0.10973677  0.54905208     0.28300
H2087       H  0.63023245  0.14929626  0.55104804     0.18800
H2088       H  0.66502221  0.15205462  0.63986373     0.18900
C2089       C  0.47187035  0.11352943  0.85554806    -0.07000
C2090       C  0.48121670  0.11433901  0.88119506    -0.18100
C2091       C  0.49557421  0.13685667  0.89532111     0.10200
C2092       C  0.49940154  0.15910378  0.88449254    -0.06900
C2093       C  0.48614758  0.15735086  0.86130428    -0.18100
C2094       C  0.47143536  0.13459889  0.84748312     0.10200
S2095       S  0.51052692  0.13601986  0.92549475    -0.33100
S2096       S  0.44983133  0.13301935  0.82282149    -0.33100
H2097       H  0.43294797  0.10704292  0.82449765     0.28300
H2098       H  0.53463735  0.15525950  0.91792710     0.28300
H2099       H  0.47986951  0.09785201  0.88898020     0.18800
H2100       H  0.48684524  0.17372054  0.85418181     0.18900
C2101       C  0.49792599  0.17153735  0.59178464    -0.07000
C2102       C  0.48624974  0.14877993  0.57778499    -0.18100
C2103       C  0.47258240  0.12588068  0.59067706     0.10200
C2104       C  0.46999221  0.12540634  0.61870837    -0.06900
C2105       C  0.47888280  0.14851457  0.63192919    -0.18100
C2106       C  0.49293661  0.17140436  0.61888235     0.10200
S2107       S  0.46160412  0.09796391  0.57080876    -0.33100
S2108       S  0.50482652  0.20027146  0.63727866    -0.33100
H2109       H  0.49667317  0.18980853  0.66239596     0.28300
H2110       H  0.46336675  0.10856746  0.54596124     0.28300
H2111       H  0.48961485  0.14885913  0.55681939     0.18800
H2112       H  0.47682960  0.14932962  0.65282037     0.18900
C2113       C  0.33685927  0.82848488  0.86683740    -0.07000
C2114       C  0.34464748  0.85065191  0.88084241    -0.18100
C2115       C  0.35206838  0.87296491  0.86791401     0.10200
C2116       C  0.35106038  0.87334305  0.83970516    -0.06900
C2117       C  0.34028858  0.85010293  0.82608006    -0.18100
C2118       C  0.33337509  0.82791766  0.83920409     0.10200
S2119       S  0.36559174  0.90096833  0.88825143    -0.33100
S2120       S  0.32084949  0.79923895  0.82025146    -0.33100
H2121       H  0.32233237  0.80914188  0.79505939     0.28300
H2122       H  0.35999496  0.88971378  0.91319483     0.28300
H2123       H  0.34688130  0.85096857  0.90213874     0.18800
H2124       H  0.33919774  0.84922419  0.80482090     0.18900
C2125       C  0.34260046  0.83812009  0.57938470    -0.07000
C2126       C  0.35594354  0.86075736  0.56590396    -0.18100
C2127       C  0.36373360  0.88362587  0.57850448     0.10200
C2128       C  0.35845536  0.88414803  0.60573826    -0.06900
C2129       C  0.34166100  0.86095250  0.61759334    -0.18100
C2130       C  0.33380718  0.83820166  0.60483135     0.10200
S2131       S  0.38290988  0.91189466  0.56008661    -0.33100
S2132       S  0.31315567  0.80997759  0.62245076    -0.33100
H2133       H  0.29922967  0.79637210  0.59974923     0.28300
H2134       H  0.37921236  0.90060975  0.53497030     0.28300
H2135       H  0.36192850  0.86074837  0.54592079     0.18800
H2136       H  0.33558799  0.85983723  0.63767233     0.18900
C2137       C  0.52420793  0.88933271  0.85322214    -0.07000
C2138       C  0.51854741  0.86719974  0.83977626    -0.18100
C2139       C  0.50551575  0.84385638  0.85199942     0.10200
C2140       C  0.49829285  0.84239516  0.87850393    -0.06900
C2141       C  0.50711895  0.86460338  0.89298608    -0.18100
C2142       C  0.51991246  0.88787744  0.88086935     0.10200
S2143       S  0.49774941  0.81617927  0.83323845    -0.33100
S2144       S  0.52786907  0.91498101  0.90081619    -0.33100
H2145       H  0.52376082  0.90382334  0.92572373     0.28300
H2146       H  0.51131714  0.82825679  0.81045099     0.28300
H2147       H  0.52270463  0.86728657  0.81926279     0.18800
H2148       H  0.50235589  0.86365954  0.91362516     0.18900
C2149       C  0.52721539  0.88580204  0.62681059    -0.07000
C2150       C  0.50822286  0.86415092  0.63946686    -0.18100
C2151       C  0.49417506  0.84104796  0.62628085     0.10200
C2152       C  0.49845399  0.83940891  0.59919325    -0.06900
C2153       C  0.51978677  0.85981307  0.58778209    -0.18100
C2154       C  0.53497300  0.88245250  0.60176274     0.10200
S2155       S  0.47062393  0.81429830  0.64438384    -0.33100
S2156       S  0.56483624  0.90428992  0.58765581    -0.33100
H2157       H  0.57725247  0.91251454  0.61244076     0.28300
H2158       H  0.47389827  0.82657264  0.66879184     0.28300
H2159       H  0.50293510  0.86582511  0.65930445     0.18800
H2160       H  0.52477067  0.85814358  0.56777077     0.18900
C2161       C  0.15840457  0.50119052  0.58088130    -0.07000
C2162       C  0.13589572  0.49428903  0.56777187    -0.18100
C2163       C  0.11274983  0.48054264  0.58041168     0.10200
C2164       C  0.11183276  0.47355562  0.60726957    -0.06900
C2165       C  0.13415744  0.47730552  0.61865492    -0.18100
C2166       C  0.15720156  0.49099550  0.60587061     0.10200
S2167       S  0.08520834  0.47477828  0.56256220    -0.33100
S2168       S  0.18443559  0.49518135  0.62278348    -0.33100
H2169       H  0.19619011  0.49458357  0.59957599     0.28300
H2170       H  0.09583413  0.48121487  0.53730933     0.28300
H2171       H  0.13659896  0.50129290  0.54813539     0.18800
H2172       H  0.13462902  0.47098702  0.63819602     0.18900
C2173       C  0.11738032  0.48548450  0.83924668    -0.07000
C2174       C  0.13785496  0.50758842  0.82890239    -0.18100
C2175       C  0.16074672  0.52150117  0.84247828     0.10200
C2176       C  0.16455950  0.51237978  0.86617297    -0.06900
C2177       C  0.14530547  0.48897795  0.87511810    -0.18100
C2178       C  0.12218644  0.47501388  0.86146962     0.10200
S2179       S  0.18319613  0.55192735  0.82980061    -0.33100
S2180       S  0.10185428  0.44311300  0.87143796    -0.33100
H2181       H  0.09316857  0.43385689  0.84556545     0.28300
H2182       H  0.18770415  0.56428872  0.85443155     0.28300
H2183       H  0.13550016  0.51514424  0.81077241     0.18800
H2184       H  0.14853027  0.48122873  0.89257023     0.18900
C2185       C  0.07221853  0.45951294  0.69858121    -0.07000
C2186       C  0.04967931  0.44208379  0.71070607    -0.18100
C2187       C  0.04832509  0.43949138  0.73825508     0.10200
C2188       C  0.06986175  0.45485097  0.75430734    -0.06900
C2189       C  0.09249600  0.47194082  0.74189358    -0.18100
C2190       C  0.09377420  0.47491037  0.71456347     0.10200
S2191       S  0.01902621  0.41534764  0.75150984    -0.33100
S2192       S  0.12287996  0.50044771  0.70190811    -0.33100
H2193       H  0.11157029  0.50756127  0.68296999     0.28300
H2194       H  0.03082684  0.40787676  0.76937646     0.28300
H2195       H  0.03308502  0.43013024  0.69861566     0.18800
H2196       H  0.10907652  0.48464083  0.75367235     0.18900
C2197       C  0.87076993  0.37619776  0.62850849    -0.07000
C2198       C  0.85396694  0.38296890  0.63668838    -0.18100
C2199       C  0.83177876  0.37526739  0.62269167     0.10200
C2200       C  0.82487845  0.35885808  0.60076126    -0.06900
C2201       C  0.83972724  0.34930552  0.59468378    -0.18100
C2202       C  0.86194980  0.35692415  0.60896509     0.10200
S2203       S  0.81461148  0.38918288  0.63233215    -0.33100
S2204       S  0.87535076  0.33849473  0.60382153    -0.33100
H2205       H  0.88381261  0.34091458  0.63021756     0.28300
H2206       H  0.81261255  0.39607908  0.60646767     0.28300
H2207       H  0.85911357  0.39607058  0.65304462     0.18800
H2208       H  0.83366360  0.33536194  0.57902695     0.18900
C2209       C  0.96550913  0.40857777  0.63149358    -0.07000
C2210       C  0.97895355  0.42601352  0.61184726    -0.18100
C2211       C  0.00449886  0.43566782  0.60852441     0.10200
C2212       C  0.01711170  0.42833490  0.62559006    -0.06900
C2213       C  0.00317157  0.40943788  0.64378970    -0.18100
C2214       C  0.97749750  0.39931929  0.64669454     0.10200
S2215       S  0.02067216  0.45910382  0.58399805    -0.33100
S2216       S  0.96141292  0.37619352  0.67169519    -0.33100
H2217       H  0.93797863  0.36423533  0.65853730     0.28300
H2218       H  0.03328618  0.44804928  0.57464524     0.28300
H2219       H  0.96995912  0.43340570  0.60028881     0.18800
H2220       H  0.01268634  0.40382651  0.65714036     0.18900
C2221       C  0.87462732  0.37800474  0.84948596    -0.07000
C2222       C  0.86958418  0.36311064  0.87193424    -0.18100
C2223       C  0.84681021  0.35255922  0.88514977     0.10200
C2224       C  0.82841456  0.35702291  0.87612940    -0.06900
C2225       C  0.83238114  0.36990285  0.85254134    -0.18100
C2226       C  0.85506719  0.38055996  0.83923507     0.10200
S2227       S  0.84257024  0.33369978  0.91346138    -0.33100
S2228       S  0.85894086  0.39885620  0.81020954    -0.33100
H2229       H  0.83787805  0.40049231  0.81363291     0.28300
H2230       H  0.81709697  0.31596633  0.90774811     0.28300
H2231       H  0.88342119  0.36000390  0.88008548     0.18800
H2232       H  0.81808312  0.37284941  0.84521107     0.18900
C2233       C  0.96896609  0.40945980  0.84494530    -0.07000
C2234       C  0.98616043  0.42959310  0.86122256    -0.18100
C2235       C  0.01193220  0.44221923  0.85674887     0.10200
C2236       C  0.02062641  0.43392077  0.83595871    -0.06900
C2237       C  0.00359229  0.41169048  0.82236736    -0.18100
C2238       C  0.97788874  0.39938968  0.82660832     0.10200
S2239       S  0.03198872  0.46981794  0.87677775    -0.33100
S2240       S  0.95717329  0.37287631  0.80556406    -0.33100
H2241       H  0.93651392  0.36282107  0.82239675     0.28300
H2242       H  0.04914275  0.48400866  0.85714956     0.28300
H2243       H  0.97938287  0.43743874  0.87528786     0.18800
H2244       H  0.01020076  0.40457308  0.80736790     0.18900
C2245       C  0.92548397  0.39829348  0.71153178    -0.07000
C2246       C  0.94406660  0.42040123  0.72439681    -0.18100
C2247       C  0.94707519  0.42263644  0.75190017     0.10200
C2248       C  0.92907036  0.40276204  0.76783643    -0.06900
C2249       C  0.91281321  0.37955167  0.75486944    -0.18100
C2250       C  0.91131182  0.37691687  0.72722999     0.10200
S2251       S  0.97454879  0.45117656  0.76428812    -0.33100
S2252       S  0.89182092  0.34560211  0.71389533    -0.33100
H2253       H  0.90571914  0.35007016  0.69084785     0.28300
H2254       H  0.98793471  0.45913536  0.74056697     0.28300
H2255       H  0.95577606  0.43699093  0.71324226     0.18800
H2256       H  0.90111905  0.36298479  0.76630652     0.18900
C2257       C  0.12371110  0.63971817  0.61182768    -0.07000
C2258       C  0.12202502  0.63190373  0.58524959    -0.18100
C2259       C  0.14326568  0.63777832  0.57111119     0.10200
C2260       C  0.16732467  0.65394205  0.58261381    -0.06900
C2261       C  0.16919442  0.66503522  0.60735440    -0.18100
C2262       C  0.14774086  0.65886669  0.62164613     0.10200
S2263       S  0.13795407  0.62135378  0.54002227    -0.33100
S2264       S  0.15267727  0.67887261  0.64951109    -0.33100
H2265       H  0.12935051  0.67642681  0.64636009     0.28300
H2266       H  0.15449027  0.61367444  0.54614279     0.28300
H2267       H  0.10380396  0.61838945  0.57656301     0.18800
H2268       H  0.18753484  0.67900074  0.61540514     0.18900
C2269       C  0.06170309  0.55222299  0.63649351    -0.07000
C2270       C  0.06039064  0.54167504  0.66118689    -0.18100
C2271       C  0.06134434  0.52019831  0.66313052     0.10200
C2272       C  0.06364563  0.50923820  0.63981697    -0.06900
C2273       C  0.06237985  0.51844387  0.61515317    -0.18100
C2274       C  0.06108327  0.53948310  0.61320622     0.10200
S2275       S  0.06270829  0.50910357  0.69546222    -0.33100
S2276       S  0.06019331  0.54987936  0.58035108    -0.33100
H2277       H  0.05149976  0.56499074  0.58812417     0.28300
H2278       H  0.05466526  0.52258247  0.70964422     0.28300
H2279       H  0.06099077  0.55153822  0.67903676     0.18800
H2280       H  0.06346610  0.50974574  0.59714061     0.18900
C2281       C  0.11088224  0.62813729  0.84939502    -0.07000
C2282       C  0.11185698  0.61614103  0.87226848    -0.18100
C2283       C  0.13447549  0.62403457  0.88551785     0.10200
C2284       C  0.15692198  0.64534317  0.87678456    -0.06900
C2285       C  0.15555969  0.65933657  0.85631751    -0.18100
C2286       C  0.13263174  0.65169030  0.84353059     0.10200
S2287       S  0.13352598  0.60476065  0.91205103    -0.33100
S2288       S  0.13185410  0.67462634  0.82360111    -0.33100
H2289       H  0.10646960  0.66543286  0.82826182     0.28300
H2290       H  0.15490598  0.60512743  0.90401136     0.28300
H2291       H  0.09508580  0.59922748  0.87875910     0.18800
H2292       H  0.17228131  0.67687093  0.85100875     0.18900
C2293       C  0.05283407  0.54745762  0.80290697    -0.07000
C2294       C  0.07183422  0.54929271  0.78720773    -0.18100
C2295       C  0.07513259  0.52945871  0.78479887     0.10200
C2296       C  0.05901500  0.50710934  0.79817488    -0.06900
C2297       C  0.03779426  0.50396745  0.81054692    -0.18100
C2298       C  0.03456452  0.52401642  0.81308686     0.10200
S2299       S  0.10133226  0.53433443  0.76607767    -0.33100
S2300       S  0.00822710  0.51917522  0.83147782    -0.33100
H2301       H  0.00657550  0.53775438  0.81866975     0.28300
H2302       H  0.08831614  0.50964069  0.75659432     0.28300
H2303       H  0.08570479  0.56709062  0.77891174     0.18800
H2304       H  0.02481086  0.48653973  0.82010879     0.18900
C2305       C  0.07118535  0.60652125  0.75631129    -0.07000
C2306       C  0.09190545  0.60755476  0.74493736    -0.18100
C2307       C  0.09440066  0.60707868  0.71746212     0.10200
C2308       C  0.07621937  0.60641289  0.70037132    -0.06900
C2309       C  0.05484724  0.60394182  0.71161100    -0.18100
C2310       C  0.05232359  0.60434230  0.73912641     0.10200
S2311       S  0.12026061  0.60544972  0.70572542    -0.33100
S2312       S  0.02584962  0.60449665  0.75090855    -0.33100
H2313       H  0.04161640  0.62748984  0.76412818     0.28300
H2314       H  0.10734122  0.59027155  0.68346350     0.28300
H2315       H  0.10607605  0.60802180  0.75756328     0.18800
H2316       H  0.04029575  0.60254658  0.69895563     0.18900
C2317       C  0.83646664  0.50252076  0.59110710    -0.07000
C2318       C  0.83922849  0.49200034  0.61394921    -0.18100
C2319       C  0.86226755  0.50252689  0.62718753     0.10200
C2320       C  0.88386120  0.52469356  0.61747144    -0.06900
C2321       C  0.88084378  0.53572620  0.59491593    -0.18100
C2322       C  0.85741825  0.52503037  0.58186948     0.10200
S2323       S  0.86322189  0.48638721  0.65621194    -0.33100
S2324       S  0.85528435  0.54145272  0.55416457    -0.33100
H2325       H  0.83077534  0.53504103  0.55955618     0.28300
H2326       H  0.83736997  0.47279628  0.66122410     0.28300
H2327       H  0.82337269  0.47458899  0.62088717     0.18800
H2328       H  0.89649650  0.55291091  0.58746809     0.18900
C2329       C  0.94553636  0.50763016  0.65660689    -0.07000
C2330       C  0.93711119  0.49346669  0.67959319    -0.18100
C2331       C  0.93358349  0.46975935  0.68045953     0.10200
C2332       C  0.94041006  0.46090276  0.65854117    -0.06900
C2333       C  0.95231060  0.47668995  0.63719976    -0.18100
C2334       C  0.95493062  0.49992462  0.63608066     0.10200
S2335       S  0.91683752  0.44970092  0.70774401    -0.33100
S2336       S  0.96894766  0.51850063  0.60734968    -0.33100
H2337       H  0.98170171  0.54056946  0.62264759     0.28300
H2338       H  0.91726283  0.46795632  0.72399310     0.28300
H2339       H  0.93071499  0.49966501  0.69569333     0.18800
H2340       H  0.95774146  0.47006471  0.62038587     0.18900
C2341       C  0.98025854  0.58677495  0.63356286    -0.07000
C2342       C  0.98933155  0.58425784  0.60930364    -0.18100
C2343       C  0.01484369  0.59331707  0.60637946     0.10200
C2344       C  0.03166411  0.60588388  0.62791122    -0.06900
C2345       C  0.02325103  0.61240409  0.65000165    -0.18100
C2346       C  0.99772555  0.60266681  0.65333303     0.10200
S2347       S  0.02384893  0.58567368  0.57593938    -0.33100
S2348       S  0.98776153  0.60950455  0.68362116    -0.33100
H2349       H  0.01165928  0.62525142  0.69530163     0.28300
H2350       H  0.04849251  0.60653264  0.57619058     0.28300
H2351       H  0.97621807  0.57258758  0.59369175     0.18800
H2352       H  0.03659044  0.62359883  0.66559469     0.18900
C2353       C  0.87246035  0.51984018  0.84701774    -0.07000
C2354       C  0.87039660  0.53072157  0.87041425    -0.18100
C2355       C  0.84782326  0.51963512  0.88418814     0.10200
C2356       C  0.82650282  0.49715763  0.87446009    -0.06900
C2357       C  0.82811204  0.48690853  0.85066033    -0.18100
C2358       C  0.85061432  0.49743225  0.83718987     0.10200
S2359       S  0.84757399  0.53509766  0.91410510    -0.33100
S2360       S  0.85086890  0.48018833  0.80868162    -0.33100
H2361       H  0.82489183  0.46635307  0.80336486     0.28300
H2362       H  0.82311092  0.52962095  0.90983119     0.28300
H2363       H  0.88633397  0.54766360  0.87862058     0.18800
H2364       H  0.81202283  0.46937689  0.84349414     0.18900
C2365       C  0.93961966  0.50555769  0.82228126    -0.07000
C2366       C  0.94132752  0.49795703  0.84779062    -0.18100
C2367       C  0.94331313  0.47743627  0.85136889     0.10200
C2368       C  0.94293232  0.46387726  0.82894552    -0.06900
C2369       C  0.94538756  0.47396740  0.80379297    -0.18100
C2370       C  0.94507812  0.49558481  0.80035699     0.10200
S2371       S  0.94325889  0.46778321  0.88483088    -0.33100
S2372       S  0.95012477  0.50889379  0.76791776    -0.33100
H2373       H  0.95716346  0.49368344  0.75571186     0.28300
H2374       H  0.95324913  0.45336046  0.87865872     0.28300
H2375       H  0.93889116  0.50670569  0.86497142     0.18800
H2376       H  0.94460786  0.46350998  0.78656278     0.18900
C2377       C  0.96856569  0.58026492  0.83597052    -0.07000
C2378       C  0.97895994  0.57174533  0.85428143    -0.18100
C2379       C  0.00403312  0.57883938  0.85267979     0.10200
C2380       C  0.01911637  0.59516848  0.83240908    -0.06900
C2381       C  0.00966784  0.60650560  0.81694647    -0.18100
C2382       C  0.98458840  0.59916381  0.81840343     0.10200
S2383       S  0.01457344  0.56520209  0.87639964    -0.33100
S2384       S  0.97341085  0.61270749  0.79552996    -0.33100
H2385       H  0.95131673  0.60545569  0.80919587     0.28300
H2386       H  0.03599500  0.56964180  0.86355126     0.28300
H2387       H  0.96675979  0.55719203  0.86786345     0.18800
H2388       H  0.02163193  0.62049039  0.80290425     0.18900
C2389       C  0.91586043  0.54337494  0.76051942    -0.07000
C2390       C  0.92516547  0.56669178  0.74918216    -0.18100
C2391       C  0.92733745  0.56941787  0.72175857     0.10200
C2392       C  0.92183231  0.54865635  0.70586541    -0.06900
C2393       C  0.90999205  0.52499787  0.71705737    -0.18100
C2394       C  0.90664039  0.52204622  0.74424939     0.10200
S2395       S  0.93482354  0.59893644  0.70873513    -0.33100
S2396       S  0.89022045  0.49106939  0.75775978    -0.33100
H2397       H  0.88289535  0.47785552  0.73346635     0.28300
H2398       H  0.92922865  0.59171512  0.68197725     0.28300
H2399       H  0.93005404  0.58263101  0.76168661     0.18800
H2400       H  0.90275712  0.50876155  0.70427074     0.18900
C2401       C  0.47413300  0.36650450  0.61744230    -0.07000
C2402       C  0.47700898  0.34779839  0.62836806    -0.18100
C2403       C  0.48983568  0.33865523  0.61512402     0.10200
C2404       C  0.50000957  0.34799445  0.59007858    -0.06900
C2405       C  0.49430915  0.36400441  0.57762223    -0.18100
C2406       C  0.48146741  0.37322569  0.59074795     0.10200
S2407       S  0.49278931  0.31530642  0.63150699    -0.33100
S2408       S  0.47678734  0.39537221  0.57369878    -0.33100
H2409       H  0.48624393  0.39422386  0.54904724     0.28300
H2410       H  0.49033473  0.30194905  0.60812260     0.28300
H2411       H  0.47019635  0.34046373  0.64768851     0.18800
H2412       H  0.50134369  0.37060202  0.55801115     0.18900
C2413       C  0.48917779  0.33448711  0.87934223    -0.07000
C2414       C  0.48156222  0.34857143  0.89281393    -0.18100
C2415       C  0.46780953  0.35700810  0.87999625     0.10200
C2416       C  0.46145853  0.35142723  0.85259758    -0.06900
C2417       C  0.46620682  0.33434808  0.84038443    -0.18100
C2418       C  0.47988211  0.32590761  0.85342273     0.10200
S2419       S  0.46105189  0.37709739  0.89857771    -0.33100
S2420       S  0.48500041  0.30433707  0.83585733    -0.33100
H2421       H  0.48457308  0.29145502  0.85855766     0.28300
H2422       H  0.46653644  0.37204949  0.92390179     0.28300
H2423       H  0.48802540  0.35461302  0.91302148     0.18800
H2424       H  0.46032922  0.32797154  0.82027536     0.18900
C2425       C  0.44653101  0.38085433  0.76333549    -0.07000
C2426       C  0.46124056  0.40509815  0.75350909    -0.18100
C2427       C  0.46596508  0.40966309  0.72662035     0.10200
C2428       C  0.45497518  0.38929568  0.70840152    -0.06900
C2429       C  0.43914063  0.36501177  0.71809266    -0.18100
C2430       C  0.43472858  0.36056327  0.74517563     0.10200
S2431       S  0.48742781  0.44164554  0.71714335    -0.33100
S2432       S  0.41324528  0.32873731  0.75482365    -0.33100
H2433       H  0.40484509  0.33459225  0.77760633     0.28300
H2434       H  0.49740487  0.45174174  0.74245335     0.28300
H2435       H  0.47026703  0.42081987  0.76712388     0.18800
H2436       H  0.42985377  0.34926230  0.70439227     0.18900
C2437       C  0.35966485  0.48437829  0.61824053    -0.07000
C2438       C  0.34433894  0.49137456  0.63055550    -0.18100
C2439       C  0.33561922  0.50462100  0.61719227     0.10200
C2440       C  0.34170910  0.51082746  0.59045193    -0.06900
C2441       C  0.35478248  0.50189564  0.57730732    -0.18100
C2442       C  0.36401727  0.48915008  0.59069022     0.10200
S2443       S  0.31719361  0.51391470  0.63487018    -0.33100
S2444       S  0.38374487  0.48193624  0.57243852    -0.33100
H2445       H  0.37639384  0.48445454  0.54689177     0.28300
H2446       H  0.31879693  0.50548088  0.65999782     0.28300
H2447       H  0.34030995  0.48826263  0.65123987     0.18800
H2448       H  0.35944554  0.50654916  0.55673905     0.18900
C2449       C  0.39993532  0.43342304  0.63533347    -0.07000
C2450       C  0.39388408  0.41530002  0.65452116    -0.18100
C2451       C  0.40491126  0.40124682  0.65448527     0.10200
C2452       C  0.42303182  0.40594644  0.63540834    -0.06900
C2453       C  0.42761148  0.42262739  0.61506986    -0.18100
C2454       C  0.41600184  0.43610886  0.61468681     0.10200
S2455       S  0.39631845  0.37863717  0.68015971    -0.33100
S2456       S  0.42425698  0.45830259  0.58890451    -0.33100
H2457       H  0.39910785  0.44722692  0.58081268     0.28300
H2458       H  0.40305763  0.36392021  0.66629797     0.28300
H2459       H  0.38132724  0.41284382  0.67029353     0.18800
H2460       H  0.44169303  0.42655742  0.60054232     0.18900
C2461       C  0.34195832  0.50720528  0.87951124    -0.07000
C2462       C  0.35634061  0.50017762  0.89355763    -0.18100
C2463       C  0.36463131  0.48605542  0.88157810     0.10200
C2464       C  0.35880639  0.47892850  0.85441648    -0.06900
C2465       C  0.34132177  0.48300358  0.84179688    -0.18100
C2466       C  0.33296771  0.49699513  0.85396702     0.10200
S2467       S  0.38469429  0.47965277  0.90087077    -0.33100
S2468       S  0.31113199  0.50138478  0.83562725    -0.33100
H2469       H  0.29710450  0.49952560  0.85789597     0.28300
H2470       H  0.37995126  0.48603732  0.92583961     0.28300
H2471       H  0.36256726  0.50717594  0.91358525     0.18800
H2472       H  0.33439795  0.47626987  0.82201385     0.18900
C2473       C  0.39189980  0.42231730  0.84047723    -0.07000
C2474       C  0.38301039  0.40353730  0.82102373    -0.18100
C2475       C  0.39156852  0.38740727  0.82020946     0.10200
C2476       C  0.40940444  0.39019111  0.83919269    -0.06900
C2477       C  0.41537190  0.40646849  0.86081792    -0.18100
C2478       C  0.40623737  0.42213796  0.86194876     0.10200
S2479       S  0.38105918  0.36519029  0.79319078    -0.33100
S2480       S  0.41454120  0.44230039  0.89040765    -0.33100
H2481       H  0.38993617  0.43625812  0.89385897     0.28300
H2482       H  0.38484832  0.34839474  0.80705789     0.28300
H2483       H  0.37048155  0.40239705  0.80553085     0.18800
H2484       H  0.42880808  0.40846978  0.87571508     0.18900
C2485       C  0.38642414  0.46899913  0.70905845    -0.07000
C2486       C  0.39187637  0.45250585  0.72077535    -0.18100
C2487       C  0.39221088  0.45012526  0.74842861     0.10200
C2488       C  0.38671280  0.46453892  0.76508591    -0.06900
C2489       C  0.38224353  0.48173378  0.75312964    -0.18100
C2490       C  0.38213240  0.48424563  0.72572084     0.10200
S2491       S  0.39898657  0.42807288  0.76141670    -0.33100
S2492       S  0.37768721  0.50835731  0.71395889    -0.33100
H2493       H  0.39368976  0.51536578  0.69228575     0.28300
H2494       H  0.40292005  0.41976926  0.73718429     0.28300
H2495       H  0.39564956  0.44119027  0.70810035     0.18800
H2496       H  0.37943156  0.49405514  0.76533252     0.18900
C2497       C  0.63726891  0.52687562  0.62449767    -0.07000
C2498       C  0.65012113  0.53605609  0.60055676    -0.18100
C2499       C  0.65951261  0.52366025  0.58677854     0.10200
C2500       C  0.65620455  0.50144490  0.59694052    -0.06900
C2501       C  0.64583716  0.49373787  0.62198385    -0.22900
C2502       C  0.63594468  0.50564282  0.63562954     0.10200
S2503       S  0.67491619  0.53689821  0.55599497    -0.33100
S2504       S  0.61957804  0.49151353  0.66602793    -0.33100
H2505       H  0.61844836  0.46891176  0.66359669     0.28300
H2506       H  0.69329778  0.53119428  0.55983781     0.28300
H2507       H  0.65188817  0.55216270  0.59143074     0.18800
H2508       H  0.64382309  0.47709793  0.63013682     0.18900
C2509       C  0.55202169  0.49881400  0.65056205    -0.07000
C2510       C  0.55119845  0.48054076  0.66662731    -0.18100
C2511       C  0.52954707  0.45676778  0.66797418     0.10200
C2512       C  0.50785952  0.45146070  0.65385245    -0.06900
C2513       C  0.50783919  0.47038156  0.63990863    -0.18100
C2514       C  0.52984810  0.49407959  0.63799012     0.10200
S2515       S  0.53045079  0.43277029  0.68591407    -0.33100
S2516       S  0.52915559  0.51631416  0.61688782    -0.33100
H2517       H  0.54575387  0.53727820  0.63259514     0.28300
H2518       H  0.55374438  0.44866339  0.69875122     0.28300
H2519       H  0.56824860  0.48437059  0.67639892     0.18800
H2520       H  0.49115886  0.46614617  0.62892685     0.18900
C2521       C  0.64598150  0.49148473  0.87190698    -0.07000
C2522       C  0.63430296  0.48196050  0.84722357    -0.18100
C2523       C  0.62338591  0.49267252  0.83310575     0.10200
C2524       C  0.62427092  0.51399372  0.84377081    -0.06900
C2525       C  0.63827807  0.52491211  0.86733562    -0.18100
C2526       C  0.64924181  0.51406682  0.88125994     0.10200
S2527       S  0.60678291  0.47734614  0.80241162    -0.33100
S2528       S  0.66712426  0.52998033  0.91086380    -0.33100
H2529       H  0.68508766  0.52377136  0.90697528     0.28300
H2530       H  0.60792730  0.45596146  0.80427675     0.28300
H2531       H  0.63234772  0.46503000  0.83967704     0.18800
H2532       H  0.64022361  0.54148699  0.87577350     0.18900
C2533       C  0.53769314  0.48362640  0.81580603    -0.07000
C2534       C  0.53536388  0.46328971  0.80194016    -0.18100
C2535       C  0.51365596  0.43953662  0.80327360     0.10200
C2536       C  0.49352300  0.43601582  0.81854115    -0.06900
C2537       C  0.49472640  0.45668181  0.83024094    -0.18100
C2538       C  0.51668885  0.48055791  0.82900864     0.10200
S2539       S  0.51252021  0.41363826  0.78669121    -0.33100
S2540       S  0.51748757  0.50556333  0.84677686    -0.33100
H2541       H  0.53227317  0.52402162  0.82847689     0.28300
H2542       H  0.53613374  0.42745289  0.77485328     0.28300
H2543       H  0.55143463  0.46580247  0.79160158     0.18800
H2544       H  0.47905936  0.45397007  0.84162311     0.18900
C2545       C  0.59803929  0.53876831  0.76090121    -0.07000
C2546       C  0.62197784  0.55587259  0.75096667    -0.18100
C2547       C  0.62589195  0.56041039  0.72383238     0.10200
C2548       C  0.60553637  0.54724163  0.70580427    -0.06900
C2549       C  0.58138391  0.53155689  0.71579894    -0.18100
C2550       C  0.57733524  0.52708075  0.74296934     0.10200
S2551       S  0.65718555  0.58352987  0.71361254    -0.33100
S2552       S  0.54592922  0.50455461  0.75349619    -0.33100
H2553       H  0.53343239  0.50260950  0.72952896     0.28300
H2554       H  0.64968744  0.59059095  0.69084167     0.28300
H2555       H  0.63789996  0.56572613  0.76450557     0.18800
H2556       H  0.56567657  0.52154499  0.70214036     0.18900
C2557       C  0.52181854  0.64677387  0.62319329    -0.07000
C2558       C  0.49861694  0.64082673  0.63362753    -0.18100
C2559       C  0.48373762  0.64808234  0.62149160     0.10200
C2560       C  0.49251721  0.66314550  0.59896292    -0.06900
C2561       C  0.51684155  0.67175942  0.59028381    -0.18100
C2562       C  0.53189880  0.66449057  0.60257441     0.10200
S2563       S  0.45253499  0.63480581  0.63390313    -0.33100
S2564       S  0.56390072  0.68051376  0.59224737    -0.33100
H2565       H  0.57339175  0.68288448  0.61818011     0.28300
H2566       H  0.44075060  0.62648202  0.60884783     0.28300
H2567       H  0.49075151  0.62818768  0.65010766     0.18800
H2568       H  0.52424588  0.68441067  0.57379245     0.18900
C2569       C  0.49405804  0.56084786  0.64460545    -0.07000
C2570       C  0.48122368  0.55541708  0.66847359    -0.18100
C2571       C  0.45818329  0.53313486  0.67162850     0.10200
C2572       C  0.44653641  0.51682526  0.64969761    -0.06900
C2573       C  0.45945034  0.52214487  0.62582777    -0.18100
C2574       C  0.48328701  0.54369966  0.62325705     0.10200
S2575       S  0.44376780  0.52772512  0.70334289    -0.33100
S2576       S  0.49819919  0.54950525  0.59169218    -0.33100
H2577       H  0.52267420  0.56290589  0.60239636     0.28300
H2578       H  0.43961396  0.50379727  0.70534212     0.28300
H2579       H  0.48857457  0.56921512  0.68438308     0.18800
H2580       H  0.45044413  0.50999189  0.60873355     0.18900
C2581       C  0.58060628  0.61258119  0.62879570    -0.07000
C2582       C  0.57781732  0.59795538  0.60653274    -0.18100
C2583       C  0.58923136  0.58426832  0.60588432     0.10200
C2584       C  0.60352848  0.58521345  0.62803891    -0.06900
C2585       C  0.60910991  0.60255466  0.64845012    -0.18100
C2586       C  0.59796017  0.61637739  0.64895148     0.10200
S2587       S  0.58185230  0.56326885  0.57821497    -0.33100
S2588       S  0.60411126  0.63619931  0.67747829    -0.33100
H2589       H  0.59718671  0.65136438  0.66508698     0.28300
H2590       H  0.60564549  0.56671837  0.57746651     0.28300
H2591       H  0.56469357  0.59515433  0.59085678     0.18800
H2592       H  0.62025196  0.60352649  0.66541750     0.18900
C2593       C  0.52097368  0.64364236  0.85112002    -0.07000
C2594       C  0.51833384  0.66237961  0.83977409    -0.18100
C2595       C  0.50620672  0.67233540  0.85313637     0.10200
C2596       C  0.49697062  0.66394589  0.87866664    -0.06900
C2597       C  0.50259301  0.64802691  0.89135026    -0.18100
C2598       C  0.51433202  0.63776691  0.87809394     0.10200
S2599       S  0.50267283  0.69569355  0.83742017    -0.33100
S2600       S  0.51866204  0.61558571  0.89561207    -0.33100
H2601       H  0.50839074  0.61632186  0.91986724     0.28300
H2602       H  0.51742167  0.69926421  0.81524137     0.28300
H2603       H  0.52463015  0.66880087  0.82012522     0.18800
H2604       H  0.49625239  0.64227449  0.91133250     0.18900
C2605       C  0.48806823  0.55723432  0.81832354    -0.07000
C2606       C  0.48498318  0.54224757  0.83992954    -0.18100
C2607       C  0.46301707  0.51871831  0.84257257     0.10200
C2608       C  0.44415459  0.50944697  0.82266075    -0.06900
C2609       C  0.44841520  0.52341816  0.79978141    -0.18100
C2610       C  0.46982486  0.54745780  0.79769324     0.10200
S2611       S  0.45966585  0.50200448  0.87231840    -0.33100
S2612       S  0.47156917  0.56521530  0.76926741    -0.33100
H2613       H  0.48200968  0.58822566  0.78265847     0.28300
H2614       H  0.43552096  0.49646836  0.87766052     0.28300
H2615       H  0.49894349  0.54970386  0.85581486     0.18800
H2616       H  0.43388566  0.51652654  0.78455295     0.18900
C2617       C  0.58858298  0.57056964  0.83704379    -0.07000
C2618       C  0.59517476  0.58777712  0.81675644    -0.18100
C2619       C  0.58713061  0.60426848  0.81675174     0.10200
C2620       C  0.57121848  0.60296792  0.83681164    -0.06900
C2621       C  0.56705715  0.58790835  0.85874860    -0.18100
C2622       C  0.57572379  0.57172500  0.85923669     0.10200
S2623       S  0.59584176  0.62513518  0.78937396    -0.33100
S2624       S  0.56782443  0.55206301  0.88777314    -0.33100
H2625       H  0.57275398  0.53465254  0.87762294     0.28300
H2626       H  0.59437412  0.64317756  0.80396951     0.28300
H2627       H  0.60544899  0.58736562  0.79995606     0.18800
H2628       H  0.55487833  0.58686952  0.87428732     0.18900
C2629       C  0.54096872  0.61831113  0.76143958    -0.07000
C2630       C  0.53244193  0.59582055  0.74766515    -0.18100
C2631       C  0.53468867  0.59474184  0.72029295     0.10200
C2632       C  0.54322343  0.61666327  0.70527201    -0.06900
C2633       C  0.55368148  0.63948583  0.71928789    -0.18100
C2634       C  0.55345217  0.64070194  0.74692850     0.10200
S2635       S  0.52641702  0.56484288  0.70660804    -0.33100
S2636       S  0.57050899  0.67156410  0.76175233    -0.33100
H2637       H  0.57790844  0.66479144  0.78472427     0.28300
H2638       H  0.52626902  0.55340550  0.73038645     0.28300
H2639       H  0.52307757  0.57846186  0.75810557     0.18800
H2640       H  0.56255216  0.65682692  0.70859210     0.18900
loop_ 
_geom_bond_atom_site_label_1 
_geom_bond_atom_site_label_2 
_geom_bond_distance 
_geom_bond_site_symmetry_2 
_ccdc_geom_bond_type 
C1            C2   1.534       .  S
C1            C7   1.556       .  S
C1            C5   1.547       .  S
C1         C1273   1.541       .  S
C2            H9   1.087       .  S
C2            C3   1.354       .  D
C3            C4   1.528       .  S
C3         C1285   1.473       .  S
C4            C8   1.539       .  S
C4            C6   1.526       .  S
C4           H10   1.108       .  S
C5           H11   1.086       .  S
C5            C6   1.365       .  D
C6         C1300   1.475       .  S
C7           H12   1.079       .  S
C7            C8   1.375       .  D
C8         C1309   1.498       .  S
C13          C14   1.545       .  S
C13          C19   1.536       .  S
C13          C17   1.552       .  S
C13        C1237   1.544       .  S
C14          H21   1.086       .  S
C14          C15   1.374       .  D
C15          C16   1.537       .  S
C15        C1312   1.506       .  S
C16          C20   1.535       .  S
C16          C18   1.533       .  S
C16          H22   1.100       .  S
C17          H23   1.076       .  S
C17          C18   1.367       .  D
C18        C1261   1.476       .  S
C19          H24   1.088       .  S
C19          C20   1.353       .  D
C20        C1249   1.474       .  S
C25          C26   1.537       .  S
C25          C31   1.530       .  S
C25          C29   1.548       .  S
C25        C1204   1.536       .  S
C26          H33   1.086       .  S
C26          C27   1.367       .  D
C27          C28   1.540       .  S
C27        C1225   1.491       .  S
C28          C32   1.537       .  S
C28          C30   1.541       .  S
C28          H34   1.109       .  S
C29          H35   1.082       .  S
C29          C30   1.369       .  D
C30        C1297   1.476       .  S
C31          H36   1.088       .  S
C31          C32   1.358       .  D
C32        C1213   1.483       .  S
C37          C38   1.533       .  S
C37          C43   1.541       .  S
C37          C41   1.550       .  S
C37        C1177   1.539       .  S
C38          H45   1.088       .  S
C38          C39   1.359       .  D
C39          C40   1.529       .  S
C39        C1189   1.479       .  S
C40          C44   1.532       .  S
C40          C42   1.540       .  S
C40          H46   1.111       .  S
C41          H47   1.082       .  S
C41          C42   1.372       .  D
C42        C1264   1.477       .  S
C43          H48   1.085       .  S
C43          C44   1.366       .  D
C44        C1228   1.484       .  S
C49          C50   1.549       .  S
C49          C55   1.534       .  S
C49          C53   1.537       .  S
C49        C1144   1.540       .  S
C50          H57   1.079       .  S
C50          C51   1.372       .  D
C51          C52   1.545       .  S
C51        C1168   1.507       .  S
C52          C56   1.531       .  S
C52          C54   1.553       .  S
C52          H58   1.107       .  S
C53          H59   1.085       .  S
C53          C54   1.366       .  D
C54        C1153   1.482       .  S
C55          H60   1.088       .  S
C55          C56   1.356       .  D
C56        C1288   1.475       .  S
C61          C62   1.541       .  S
C61          C67   1.550       .  S
C61          C65   1.545       .  S
C61        C1117   1.546       .  S
C62          H69   1.087       .  S
C62          C63   1.360       .  D
C63          C64   1.525       .  S
C63        C1252   1.479       .  S
C64          C68   1.537       .  S
C64          C66   1.539       .  S
C64          H70   1.110       .  S
C65          H71   1.085       .  S
C65          C66   1.370       .  D
C66        C1129   1.480       .  S
C67          H72   1.079       .  S
C67          C68   1.367       .  D
C68        C1165   1.491       .  S
C73          C74   1.536       .  S
C73          C79   1.556       .  S
C73          C77   1.549       .  S
C73        C1096   1.545       .  S
C74          H81   1.088       .  S
C74          C75   1.356       .  D
C75          C76   1.527       .  S
C75        C1216   1.476       .  S
C76          C80   1.531       .  S
C76          C78   1.529       .  S
C76          H82   1.112       .  S
C77          H83   1.085       .  S
C77          C78   1.370       .  D
C78        C1156   1.477       .  S
C79          H84   1.079       .  S
C79          C80   1.371       .  D
C80        C1105   1.484       .  S
C85          C86   1.550       .  S
C85          C91   1.534       .  S
C85          C89   1.546       .  S
C85        C1081   1.541       .  S
C86          H93   1.079       .  S
C86          C87   1.369       .  D
C87          C88   1.533       .  S
C87        C1108   1.486       .  S
C88          C92   1.531       .  S
C88          C90   1.531       .  S
C88          H94   1.108       .  S
C89          H95   1.086       .  S
C89          C90   1.369       .  D
C90        C1132   1.478       .  S
C91          H96   1.087       .  S
C91          C92   1.357       .  D
C92        C1192   1.472       .  S
C97          C98   1.536       .  S
C97         C103   1.531       .  S
C97         C101   1.562       .  S
C97        C1033   1.536       .  S
C98         H105   1.087       .  S
C98          C99   1.364       .  D
C99         C100   1.528       .  S
C99        C1045   1.483       .  S
C100        C104   1.530       .  S
C100        C102   1.530       .  S
C100        H106   1.110       .  S
C101        H107   1.083       .  S
C101        C102   1.378       .  D
C102       C1057   1.478       .  S
C103        H108   1.087       .  S
C103        C104   1.353       .  D
C104       C1069   1.462       .  S
C109        C110   1.528       .  S
C109        C115   1.538       .  S
C109        C113   1.555       .  S
C109       C1000   1.535       .  S
C110        H117   1.088       .  S
C110        C111   1.351       .  D
C111        C112   1.536       .  S
C111       C1072   1.464       .  S
C112        C116   1.533       .  S
C112        C114   1.544       .  S
C112        H118   1.111       .  S
C113        H119   1.083       .  S
C113        C114   1.383       .  D
C114       C1021   1.487       .  S
C115        H120   1.087       .  S
C115        C116   1.359       .  D
C116       C1009   1.485       .  S
C121        C122   1.543       .  S
C121        C127   1.542       .  S
C121        C125   1.531       .  S
C121        C961   1.543       .  S
C122        H129   1.081       .  S
C122        C123   1.371       .  D
C123        C124   1.543       .  S
C123        C985   1.498       .  S
C124        C128   1.534       .  S
C124        C126   1.553       .  S
C124        H130   1.109       .  S
C125        H131   1.086       .  S
C125        C126   1.366       .  D
C126       C1060   1.483       .  S
C127        H132   1.087       .  S
C127        C128   1.363       .  D
C128        C973   1.484       .  S
C133        C134   1.541       .  S
C133        C139   1.547       .  S
C133        C137   1.536       .  S
C133        C937   1.535       .  S
C134        H141   1.087       .  S
C134        C135   1.358       .  D
C135        C136   1.529       .  S
C135        C949   1.480       .  S
C136        C140   1.538       .  S
C136        C138   1.543       .  S
C136        H142   1.111       .  S
C137        H143   1.086       .  S
C137        C138   1.362       .  D
C138       C1024   1.476       .  S
C139        H144   1.077       .  S
C139        C140   1.372       .  D
C140        C988   1.491       .  S
C145        C146   1.536       .  S
C145        C151   1.526       .  S
C145        C149   1.553       .  S
C145        C901   1.533       .  S
C146        H153   1.084       .  S
C146        C147   1.376       .  D
C147        C148   1.542       .  S
C147        C928   1.511       .  S
C148        C152   1.531       .  S
C148        C150   1.529       .  S
C148        H154   1.095       .  S
C149        H155   1.082       .  S
C149        C150   1.370       .  D
C150        C913   1.472       .  S
C151        H156   1.088       .  S
C151        C152   1.353       .  D
C152       C1048   1.474       .  S
C157        C158   1.538       .  S
C157        C163   1.536       .  S
C157        C161   1.551       .  S
C157        C877   1.538       .  S
C158        H165   1.087       .  S
C158        C159   1.355       .  D
C159        C160   1.535       .  S
C159       C1012   1.476       .  S
C160        C164   1.542       .  S
C160        C162   1.531       .  S
C160        H166   1.108       .  S
C161        H167   1.082       .  S
C161        C162   1.367       .  D
C162        C889   1.478       .  S
C163        H168   1.084       .  S
C163        C164   1.371       .  D
C164        C925   1.496       .  S
C169        C170   1.548       .  S
C169        C175   1.533       .  S
C169        C173   1.543       .  S
C169        C853   1.542       .  S
C170        H177   1.087       .  S
C170        C171   1.362       .  D
C171        C172   1.526       .  S
C171        C976   1.480       .  S
C172        C176   1.540       .  S
C172        C174   1.544       .  S
C172        H178   1.111       .  S
C173        H179   1.081       .  S
C173        C174   1.367       .  D
C174        C916   1.480       .  S
C175        H180   1.087       .  S
C175        C176   1.369       .  D
C176        C868   1.491       .  S
C181        C182   1.547       .  S
C181        C187   1.539       .  S
C181        C185   1.550       .  S
C181        C844   1.548       .  S
C182        H189   1.079       .  S
C182        C183   1.364       .  D
C183        C184   1.532       .  S
C183        C865   1.481       .  S
C184        C188   1.528       .  S
C184        C186   1.533       .  S
C184        H190   1.110       .  S
C185        H191   1.085       .  S
C185        C186   1.373       .  D
C186        C892   1.479       .  S
C187        H192   1.087       .  S
C187        C188   1.363       .  D
C188        C952   1.485       .  S
In193       O195   2.241       .  S
In193       O196   2.271       .  S
In193       O204   2.254       .  S
In193       O198   2.246       .  S
In193       O200   2.246       .  S
In193       O201   2.259       .  S
In193       O202   2.238       .  S
In193       O205   2.246       .  S
C194        O200   1.261   1_556  A
C194        O202   1.260   1_556  A
C194       C1545   1.460       .  S
O195        C203   1.259       .  A
O196        C203   1.262       .  A
C197        O204   1.261       .  A
C197        O198   1.257       .  A
C197       C1240   1.479       .  S
C199        O201   1.260       .  A
C199        O205   1.258       .  A
C199        C207   1.466       .  S
C203        C268   1.469       .  S
In206       O208   2.260       .  S
In206       O209   2.248       .  S
In206       O217   2.270       .  S
In206       O211   2.233       .  S
In206       O213   2.251       .  S
In206       O214   2.239       .  S
In206       O215   2.258       .  S
In206       O218   2.242       .  S
C207        O213   1.259       .  A
C207        O215   1.258       .  A
O208        C216   1.261       .  A
O209        C216   1.259       .  A
C210        O217   1.259       .  A
C210        O211   1.259       .  A
C210        C832   1.491       .  S
C212        O214   1.258   1_556  A
C212        O218   1.261   1_556  A
C212       C1562   1.458       .  S
C216        C307   1.468       .  S
In219       O221   2.269       .  S
In219       O222   2.234       .  S
In219       O230   2.243       .  S
In219       O224   2.261       .  S
In219       O226   2.263       .  S
In219       O227   2.236       .  S
In219       O228   2.253       .  S
In219       O231   2.250       .  S
C220        O226   1.260       .  A
C220        O228   1.259       .  A
C220        C233   1.470       .  S
O221        C229   1.262       .  A
O222        C229   1.257       .  A
C223        O230   1.258       .  A
C223        O224   1.262       .  A
C223       C1276   1.485       .  S
C225        O227   1.259       .  A
C225        O231   1.261       .  A
C225       C1514   1.459       .  S
C229        C294   1.465       .  S
In232       O234   2.243       .  S
In232       O235   2.247       .  S
In232       O243   2.236       .  S
In232       O237   2.266       .  S
In232       O239   2.264       .  S
In232       O240   2.253       .  S
In232       O241   2.259       .  S
In232       O244   2.275       .  S
C233        O239   1.258       .  A
C233        O241   1.258       .  A
O234        C242   1.257       .  A
O235        C242   1.259       .  A
C236        O243   1.256       .  A
C236        O237   1.264       .  A
C236        C820   1.487       .  S
C238        O240   1.259       .  A
C238        O244   1.261       .  A
C238        C329   1.474       .  S
C242       C1532   1.458       .  S
In245       O247   2.239       .  S
In245       O248   2.239       .  S
In245       O256   2.234       .  S
In245       O250   2.270       .  S
In245       O252   2.251       .  S
In245       O253   2.229       .  S
In245       O254   2.257       .  S
In245       O257   2.281       .  S
C246        O252   1.259       .  A
C246        O254   1.260       .  A
C246        C259   1.467       .  S
O247        C255   1.259   1_554  A
O248        C255   1.259   1_554  A
C249        O256   1.256       .  A
C249        O250   1.263       .  A
C249        C841   1.487       .  S
C251        O253   1.257       .  A
C251        O257   1.263       .  A
C251        C316   1.469       .  S
C255       C1597   1.456       .  S
In258       O260   2.271       .  S
In258       O261   2.239       .  S
In258       O269   2.232       .  S
In258       O263   2.273       .  S
In258       O265   2.250       .  S
In258       O266   2.234       .  S
In258       O267   2.255       .  S
In258       O270   2.237       .  S
C259        O265   1.259       .  A
C259        O267   1.260       .  A
O260        C268   1.262       .  A
O261        C268   1.258       .  A
C262        O269   1.257       .  A
C262        O263   1.263       .  A
C262       C1120   1.488       .  S
C264        O266   1.259   1_556  A
C264        O270   1.260   1_556  A
C264       C1605   1.454       .  S
In271       O273   2.260       .  S
In271       O274   2.224       .  S
In271       O282   2.248       .  S
In271       O276   2.257       .  S
In271       O278   2.254       .  S
In271       O279   2.247       .  S
In271       O280   2.249       .  S
In271       O283   2.251       .  S
C272        O278   1.260       .  A
C272        O280   1.258       .  A
C272        C290   1.466       .  S
O273        C281   1.262       .  A
O274        C281   1.258       .  A
C275        O282   1.258       .  A
C275        O276   1.261       .  A
C275        C856   1.484       .  S
C277        O279   1.259       .  A
C277        O283   1.261       .  A
C277       C1575   1.464       .  S
C281        C346   1.460       .  S
In284       O286   2.234       .  S
In284       O287   2.270       .  S
In284       O295   2.262       .  S
In284       O289   2.220       .  S
In284       O291   2.231       .  S
In284       O292   2.254       .  S
In284       O293   2.250       .  S
In284       O296   2.249       .  S
C285        O291   1.258       .  A
C285        O293   1.261       .  A
C285       C1584   1.459       .  S
O286        C294   1.257       .  A
O287        C294   1.262       .  A
C288        O295   1.263       .  A
C288        O289   1.256       .  A
C288       C1141   1.481       .  S
C290        O292   1.260       .  A
C290        O296   1.258       .  A
In297       O299   2.250       .  S
In297       O300   2.266       .  S
In297       O308   2.270       .  S
In297       O302   2.231       .  S
In297       O304   2.238       .  S
In297       O305   2.258       .  S
In297       O306   2.249       .  S
In297       O309   2.242       .  S
C298        O304   1.258   1_556  A
C298        O306   1.260   1_556  A
C298       C1644   1.459       .  S
O299        C307   1.257       .  A
O300        C307   1.260       .  A
C301        O308   1.263       .  A
C301        O302   1.255       .  A
C301        C805   1.479       .  S
C303        O305   1.259       .  A
C303        O309   1.258       .  A
C303        C320   1.463       .  S
In310       O312   2.239       .  S
In310       O313   2.261       .  S
In310       O321   2.273       .  S
In310       O315   2.214       .  S
In310       O317   2.232       .  S
In310       O318   2.282       .  S
In310       O319   2.242       .  S
In310       O322   2.230       .  S
C311        O317   1.258   1_556  A
C311        O319   1.261   1_556  A
C311       C1657   1.456       .  S
O312        C320   1.256       .  A
O313        C320   1.259       .  A
C314        O321   1.264       .  A
C314        O315   1.254       .  A
C314        C940   1.479       .  S
C316        O318   1.263       .  A
C316        O322   1.257       .  A
In323       O325   2.235       .  S
In323       O326   2.266       .  S
In323       O334   2.270       .  S
In323       O328   2.234       .  S
In323       O330   2.230       .  S
In323       O331   2.276       .  S
In323       O332   2.251       .  S
In323       O335   2.248       .  S
C324        O330   1.260       .  A
C324        O332   1.261       .  A
C324       C1618   1.460       .  S
O325        C333   1.257       .  A
O326        C333   1.262       .  A
C327        O334   1.263       .  A
C327        O328   1.257       .  A
C327        C793   1.484       .  S
C329        O331   1.263       .  A
C329        O335   1.258       .  A
C333        C342   1.464       .  S
In336       O338   2.223       .  S
In336       O339   2.263       .  S
In336       O347   2.281       .  S
In336       O341   2.228       .  S
In336       O343   2.232       .  S
In336       O344   2.258       .  S
In336       O345   2.246       .  S
In336       O348   2.237       .  S
C337        O343   1.259       .  A
C337        O345   1.259       .  A
C337       C1631   1.456       .  S
O338        C346   1.257       .  A
O339        C346   1.262       .  A
C340        O347   1.264       .  A
C340        O341   1.254       .  A
C340        C964   1.483       .  S
C342        O344   1.260       .  A
C342        O348   1.259       .  A
In349       O351   2.246       .  S
In349       O352   2.272       .  S
In349       O360   2.277       .  S
In349       O354   2.228       .  S
In349       O356   2.242       .  S
In349       O357   2.256       .  S
In349       O358   2.248       .  S
In349       O361   2.254       .  S
C350        O356   1.258   1_556  A
C350        O358   1.258   1_556  A
C350       C1701   1.458       .  S
O351        C359   1.257       .  A
O352        C359   1.261       .  A
C353        O360   1.265       .  A
C353        O354   1.256       .  A
C353       C1084   1.484       .  S
C355        O357   1.259       .  A
C355        O361   1.260       .  A
C355        C363   1.468       .  S
C359        C476   1.470       .  S
In362       O364   2.287       .  S
In362       O365   2.223       .  S
In362       O373   2.225       .  S
In362       O367   2.265       .  S
In362       O369   2.250       .  S
In362       O371   2.263       .  S
In362       O374   2.236       .  S
In362      O1690   2.243       .  S
C363        O369   1.257       .  A
C363        O371   1.260       .  A
O364        C372   1.264       .  A
O365        C372   1.256       .  A
C366        O373   1.257       .  A
C366        O367   1.263       .  A
C366        C781   1.483       .  S
C368        O370   1.259       .  A
C368       O1694   1.260       .  A
C368        C398   1.461       .  S
O370      In1682   2.246       .  S
C372        C424   1.468       .  S
O374       C1688   1.260       .  A
In375       O377   2.262       .  S
In375       O378   2.250       .  S
In375       O386   2.242       .  S
In375       O380   2.276       .  S
In375       O382   2.250       .  S
In375       O383   2.248       .  S
In375       O384   2.270       .  S
In375       O387   2.245       .  S
C376        O382   1.258       .  A
C376        O384   1.260       .  A
C376        C389   1.470       .  S
O377        C385   1.261       .  A
O378        C385   1.259       .  A
C379        O386   1.256       .  A
C379        O380   1.263       .  A
C379       C1093   1.490       .  S
C381        O383   1.259       .  A
C381        O387   1.259       .  A
C381       C1670   1.460       .  S
C385        C502   1.468       .  S
In388       O390   2.239       .  S
In388       O391   2.244       .  S
In388       O399   2.228       .  S
In388       O393   2.274       .  S
In388       O395   2.250       .  S
In388       O396   2.232       .  S
In388       O397   2.269       .  S
In388       O400   2.288       .  S
C389        O395   1.258       .  A
C389        O397   1.260       .  A
O390        C398   1.260       .  A
O391        C398   1.262       .  A
C392        O399   1.254       .  A
C392        O393   1.263       .  A
C392        C772   1.481       .  S
C394        O396   1.256       .  A
C394        O400   1.262       .  A
C394        C446   1.470       .  S
In401       O403   2.240       .  S
In401       O404   2.250       .  S
In401       O412   2.241       .  S
In401       O406   2.249       .  S
In401       O408   2.247       .  S
In401       O409   2.266       .  S
In401       O410   2.234       .  S
In401       O413   2.231       .  S
C402       O1728   1.261       .  A
C402       O1730   1.260       .  A
C402        C428   1.459       .  S
O403        C411   1.258       .  A
O404        C411   1.259       .  A
C405        O412   1.260       .  A
C405        O406   1.259       .  A
C405        C880   1.478       .  S
C407        O409   1.262       .  A
C407        O413   1.258       .  A
C407        C459   1.464       .  S
O408       C1722   1.262       .  A
O410       C1722   1.260       .  A
C411        C420   1.460       .  S
In414       O416   2.226       .  S
In414       O417   2.287       .  S
In414       O425   2.265       .  S
In414       O419   2.227       .  S
In414       O421   2.228       .  S
In414       O422   2.249       .  S
In414       O423   2.251       .  S
In414       O426   2.238       .  S
C415        O421   1.258   1_556  A
C415        O423   1.260   1_556  A
C415       C1761   1.456       .  S
O416        C424   1.256       .  A
O417        C424   1.262       .  A
C418        O425   1.262       .  A
C418        O419   1.256       .  A
C418        C757   1.485       .  S
C420        O422   1.260       .  A
C420        O426   1.259       .  A
In427       O429   2.255       .  S
In427       O430   2.260       .  S
In427       O438   2.249       .  S
In427       O432   2.242       .  S
In427       O434   2.246       .  S
In427       O435   2.242       .  S
In427       O436   2.238       .  S
In427       O439   2.242       .  S
C428        O434   1.260       .  A
C428        O436   1.259       .  A
O429        C437   1.260       .  A
O430        C437   1.259       .  A
C431        O438   1.261       .  A
C431        O432   1.257       .  A
C431        C904   1.479       .  S
C433        O435   1.258       .  A
C433        O439   1.259       .  A
C433        C450   1.458       .  S
C437        C489   1.469       .  S
In440       O442   2.239       .  S
In440       O443   2.247       .  S
In440       O451   2.267       .  S
In440       O445   2.223       .  S
In440       O447   2.225       .  S
In440       O448   2.289       .  S
In440       O449   2.238       .  S
In440       O452   2.233       .  S
C441        O447   1.260       .  A
C441        O449   1.262       .  A
C441       C1735   1.454       .  S
O442        C450   1.257       .  A
O443        C450   1.260       .  A
C444        O451   1.262       .  A
C444        O445   1.255       .  A
C444        C745   1.479       .  S
C446        O448   1.262       .  A
C446        O452   1.255       .  A
In453       O455   2.247       .  S
In453       O456   2.221       .  S
In453       O464   2.250       .  S
In453       O458   2.250       .  S
In453       O460   2.259       .  S
In453       O461   2.231       .  S
In453       O462   2.249       .  S
In453       O465   2.266       .  S
C454        O460   1.260       .  A
C454        O462   1.258       .  A
C454        C467   1.468       .  S
O455        C463   1.261   1_554  A
O456        C463   1.258   1_554  A
C457        O464   1.256       .  A
C457        O458   1.263       .  A
C457        C997   1.482       .  S
C459        O461   1.259       .  A
C459        O465   1.262       .  A
C463       C1805   1.452       .  S
In466       O468   2.271       .  S
In466       O469   2.247       .  S
In466       O477   2.247       .  S
In466       O471   2.261       .  S
In466       O473   2.256       .  S
In466       O474   2.244       .  S
In466       O475   2.254       .  S
In466       O478   2.257       .  S
C467        O473   1.259       .  A
C467        O475   1.260       .  A
O468        C476   1.261       .  A
O469        C476   1.259       .  A
C470        O477   1.258       .  A
C470        O471   1.262       .  A
C470       C1180   1.486       .  S
C472        O474   1.259   1_556  A
C472        O478   1.261   1_556  A
C472       C1813   1.465       .  S
In479       O481   2.265       .  S
In479       O482   2.248       .  S
In479       O490   2.234       .  S
In479       O484   2.241       .  S
In479       O486   2.251       .  S
In479       O487   2.228       .  S
In479       O488   2.255       .  S
In479       O491   2.243       .  S
C480        O486   1.258       .  A
C480        O488   1.259       .  A
C480        C498   1.465       .  S
O481        C489   1.262       .  A
O482        C489   1.259       .  A
C483        O490   1.256       .  A
C483        O484   1.264       .  A
C483       C1036   1.480       .  S
C485        O487   1.259       .  A
C485        O491   1.259       .  A
C485       C1783   1.454       .  S
In492       O494   2.250       .  S
In492       O495   2.259       .  S
In492       O503   2.252       .  S
In492       O497   2.240       .  S
In492       O499   2.254       .  S
In492       O500   2.251       .  S
In492       O501   2.248       .  S
In492       O504   2.254       .  S
C493        O499   1.258       .  A
C493        O501   1.258       .  A
C493       C1792   1.463       .  S
O494        C502   1.259       .  A
O495        C502   1.260       .  A
C496        O503   1.263       .  A
C496        O497   1.257       .  A
C496       C1201   1.486       .  S
C498        O500   1.258       .  A
C498        O504   1.259       .  A
C505        C506   1.544       .  S
C505        C511   1.533       .  S
C505        C509   1.554       .  S
C505        C817   1.545       .  S
C506        H513   1.080       .  S
C506        C507   1.362       .  D
C507        C508   1.534       .  S
C507        C736   1.478       .  S
C508        C512   1.533       .  S
C508        C510   1.534       .  S
C508        H514   1.111       .  S
C509        H515   1.085       .  S
C509        C510   1.375       .  D
C510        C724   1.484       .  S
C511        H516   1.087       .  S
C511        C512   1.357       .  D
C512        C709   1.482       .  S
C517        C518   1.537       .  S
C517        C523   1.536       .  S
C517        C521   1.554       .  S
C517        C829   1.542       .  S
C518        H525   1.088       .  S
C518        C519   1.356       .  D
C519        C520   1.534       .  S
C519        C685   1.483       .  S
C520        C524   1.535       .  S
C520        C522   1.540       .  S
C520        H526   1.111       .  S
C521        H527   1.077       .  S
C521        C522   1.375       .  D
C522        C697   1.481       .  S
C523        H528   1.086       .  S
C523        C524   1.362       .  D
C524        C733   1.479       .  S
C529        C530   1.536       .  S
C529        C535   1.541       .  S
C529        C533   1.541       .  S
C529        C748   1.538       .  S
C530        H537   1.087       .  S
C530        C531   1.360       .  D
C531        C532   1.534       .  S
C531        C661   1.489       .  S
C532        C536   1.539       .  S
C532        C534   1.541       .  S
C532        H538   1.110       .  S
C533        H539   1.085       .  S
C533        C534   1.368       .  D
C534        C721   1.477       .  S
C535        H540   1.080       .  S
C535        C536   1.365       .  D
C536        C673   1.482       .  S
C541        C542   1.545       .  S
C541        C547   1.533       .  S
C541        C545   1.545       .  S
C541        C760   1.536       .  S
C542        H549   1.083       .  S
C542        C543   1.366       .  D
C543        C544   1.539       .  S
C543        C676   1.480       .  S
C544        C548   1.531       .  S
C544        C546   1.540       .  S
C544        H550   1.110       .  S
C545        H551   1.085       .  S
C545        C546   1.369       .  D
C546        C700   1.483       .  S
C547        H552   1.088       .  S
C547        C548   1.356       .  D
C548        C649   1.479       .  S
C553        C554   1.531       .  S
C553        C559   1.543       .  S
C553        C557   1.547       .  S
C553        C796   1.543       .  S
C554        H561   1.088       .  S
C554        C555   1.359       .  D
C555        C556   1.531       .  S
C555        C712   1.483       .  S
C556        C560   1.537       .  S
C556        C558   1.538       .  S
C556        H562   1.110       .  S
C557        H563   1.084       .  S
C557        C558   1.370       .  D
C558        C625   1.479       .  S
C559        H564   1.083       .  S
C559        C560   1.367       .  D
C560        C637   1.483       .  S
C565        C566   1.542       .  S
C565        C571   1.534       .  S
C565        C569   1.550       .  S
C565        C808   1.542       .  S
C566        H573   1.082       .  S
C566        C567   1.365       .  D
C567        C568   1.537       .  S
C567        C640   1.482       .  S
C568        C572   1.531       .  S
C568        C570   1.542       .  S
C568        H574   1.111       .  S
C569        H575   1.085       .  S
C569        C570   1.372       .  D
C570        C613   1.486       .  S
C571        H576   1.087       .  S
C571        C572   1.356       .  D
C572        C688   1.479       .  S
C577        C578   1.538       .  S
C577        C583   1.543       .  S
C577        C581   1.545       .  S
C577        C769   1.541       .  S
C578        H585   1.079       .  S
C578        C579   1.362       .  D
C579        C580   1.533       .  S
C579        C601   1.476       .  S
C580        C584   1.535       .  S
C580        C582   1.535       .  S
C580        H586   1.111       .  S
C581        H587   1.086       .  S
C581        C582   1.371       .  D
C582        C628   1.480       .  S
C583        H588   1.086       .  S
C583        C584   1.363       .  D
C584        C664   1.485       .  S
C589        C590   1.532       .  S
C589        C595   1.550       .  S
C589        C593   1.554       .  S
C589        C784   1.541       .  S
C590        H597   1.088       .  S
C590        C591   1.353       .  D
C591        C592   1.528       .  S
C591        C652   1.471       .  S
C592        C596   1.526       .  S
C592        C594   1.536       .  S
C592        H598   1.112       .  S
C593        H599   1.084       .  S
C593        C594   1.374       .  D
C594        C616   1.487       .  S
C595        H600   1.079       .  S
C595        C596   1.363       .  D
C596        C604   1.474       .  S
C601        C602   1.400       .  A
C601        C606   1.414       .  A
C602        C603   1.398       .  A
C602        H611   1.081       .  S
C603        C604   1.409       .  A
C603        S607   1.798       .  S
C604        C605   1.400       .  A
C605        C606   1.396       .  A
C605        H612   1.085       .  S
C606        S608   1.804       .  S
S607        H610   1.405       .  S
S608        H609   1.405       .  S
C613        C614   1.406       .  A
C613        C618   1.409       .  A
C614        C615   1.409   1_565  A
C614        H623   1.084       .  S
C615        C616   1.416       .  A
C615        S619   1.803       .  S
C616        C617   1.400       .  A
C617        C618   1.391   1_545  A
C617        H624   1.078       .  S
C618        S620   1.802       .  S
S619        H622   1.397       .  S
S620        H621   1.407   1_565  S
C625        C626   1.403       .  A
C625        C630   1.413       .  A
C626        C627   1.404   1_565  A
C626        H635   1.084       .  S
C627        C628   1.411       .  A
C627        S631   1.800       .  S
C628        C629   1.400       .  A
C629        C630   1.397   1_545  A
C629        H636   1.080       .  S
C630        S632   1.802       .  S
S631        H634   1.406       .  S
S632        H633   1.400       .  S
C637        C638   1.404       .  A
C637        C642   1.414       .  A
C638        C639   1.404       .  A
C638        H647   1.085       .  S
C639        C640   1.411       .  A
C639        S643   1.796       .  S
C640        C641   1.401       .  A
C641        C642   1.396       .  A
C641        H648   1.083       .  S
C642        S644   1.810       .  S
S643        H646   1.405       .  S
S644        H645   1.406       .  S
C649        C650   1.401       .  A
C649        C654   1.410       .  A
C650        C651   1.389       .  A
C650        H659   1.085       .  S
C651        C652   1.414       .  A
C651        S655   1.807       .  S
C652        C653   1.400       .  A
C653        C654   1.401       .  A
C653        H660   1.084       .  S
C654        S656   1.798       .  S
S655        H658   1.399       .  S
S656        H657   1.407       .  S
C661        C662   1.403       .  A
C661        C666   1.412       .  A
C662        C663   1.394       .  A
C662        H671   1.084       .  S
C663        C664   1.416       .  A
C663        S667   1.806       .  S
C664        C665   1.404       .  A
C665        C666   1.406       .  A
C665        H672   1.083       .  S
C666        S668   1.798       .  S
S667        H670   1.400       .  S
S668        H669   1.407       .  S
C673        C674   1.401       .  A
C673        C678   1.418       .  A
C674        C675   1.398       .  A
C674        H683   1.082       .  S
C675        C676   1.409       .  A
C675        S679   1.793       .  S
C676        C677   1.401       .  A
C677        C678   1.393       .  A
C677        H684   1.084       .  S
C678        S680   1.805       .  S
S679        H682   1.405       .  S
S680        H681   1.407       .  S
C685        C686   1.403       .  A
C685        C690   1.408       .  A
C686        C687   1.393       .  A
C686        H695   1.085       .  S
C687        C688   1.417       .  A
C687        S691   1.810       .  S
C688        C689   1.404       .  A
C689        C690   1.404       .  A
C689        H696   1.083       .  S
C690        S692   1.799       .  S
S691        H694   1.401       .  S
S692        H693   1.407       .  S
C697        C698   1.399       .  A
C697        C702   1.414   1_565  A
C698        C699   1.393   1_565  A
C698        H707   1.083       .  S
C699        C700   1.410       .  A
C699        S703   1.796       .  S
C700        C701   1.404       .  A
C701        C702   1.405       .  A
C701        H708   1.084       .  S
C702        S704   1.800   1_545  S
S703        H706   1.406       .  S
S704        H705   1.402       .  S
C709        C710   1.404       .  A
C709        C714   1.418       .  A
C710        C711   1.403       .  A
C710        H719   1.082       .  S
C711        C712   1.411       .  A
C711        S715   1.802       .  S
C712        C713   1.402       .  A
C713        C714   1.390       .  A
C713        H720   1.084       .  S
C714        S716   1.807       .  S
S715        H718   1.406       .  S
S716        H717   1.394       .  S
C721        C722   1.398       .  A
C721        C726   1.411       .  A
C722        C723   1.397       .  A
C722        H731   1.084       .  S
C723        C724   1.413   1_545  A
C723        S727   1.793   1_545  S
C724        C725   1.404       .  A
C725        C726   1.404   1_565  A
C725        H732   1.083       .  S
C726        S728   1.803       .  S
S727        H730   1.403       .  S
S728        H729   1.405       .  S
C733        C734   1.401       .  A
C733        C738   1.409       .  A
C734        C735   1.394       .  A
C734        H743   1.084       .  S
C735        C736   1.414       .  A
C735        S739   1.805       .  S
C736        C737   1.402       .  A
C737        C738   1.401       .  A
C737        H744   1.082       .  S
C738        S740   1.795       .  S
S739        H742   1.405       .  S
S740        H741   1.405       .  S
C745        C746   1.401       .  A
C745        C750   1.407       .  A
C746        C747   1.400       .  A
C746        H755   1.082       .  S
C747        C748   1.423       .  A
C747        S751   1.812       .  S
C748        C749   1.416       .  A
C749        C750   1.400       .  A
C749        H756   1.075       .  S
C750        S752   1.803       .  S
S751        H754   1.406       .  S
S752        H753   1.407       .  S
C757        C758   1.403       .  A
C757        C762   1.410       .  A
C758        C759   1.400       .  A
C758        H767   1.082       .  S
C759        C760   1.423       .  A
C759        S763   1.811       .  S
C760        C761   1.413       .  A
C761        C762   1.399       .  A
C761        H768   1.078       .  S
C762        S764   1.802       .  S
S763        H766   1.407       .  S
S764        H765   1.408       .  S
C769        C770   1.408       .  A
C769        C774   1.423       .  A
C770        C771   1.397       .  A
C770        H779   1.084       .  S
C771        C772   1.416       .  A
C771        S775   1.803       .  S
C772        C773   1.401       .  A
C773        C774   1.403       .  A
C773        H780   1.084       .  S
C774        S776   1.802       .  S
S775        H778   1.408       .  S
S776        H777   1.408       .  S
C781        C782   1.401       .  A
C781        C786   1.407       .  A
C782        C783   1.400       .  A
C782        H791   1.082       .  S
C783        C784   1.425       .  A
C783        S787   1.810       .  S
C784        C785   1.417       .  A
C785        C786   1.405       .  A
C785        H792   1.070       .  S
C786        S788   1.808       .  S
S787        H790   1.406       .  S
S788        H789   1.407       .  S
C793        C794   1.399       .  A
C793        C798   1.406       .  A
C794        C795   1.401       .  A
C794        H803   1.083       .  S
C795        C796   1.426       .  A
C795        S799   1.808       .  S
C796        C797   1.419       .  A
C797        C798   1.406       .  A
C797        H804   1.075       .  S
C798        S800   1.808       .  S
S799        H802   1.407       .  S
S800        H801   1.407       .  S
C805        C806   1.400       .  A
C805        C810   1.405       .  A
C806        C807   1.402       .  A
C806        H815   1.083       .  S
C807        C808   1.426       .  A
C807        S811   1.810       .  S
C808        C809   1.419       .  A
C809        C810   1.400       .  A
C809        H816   1.077       .  S
C810        S812   1.804       .  S
S811        H814   1.406       .  S
S812        H813   1.407       .  S
C817        C818   1.418       .  A
C817        C822   1.423       .  A
C818        C819   1.405       .  A
C818        H827   1.068       .  S
C819        C820   1.407       .  A
C819        S823   1.809       .  S
C820        C821   1.403       .  A
C821        C822   1.404       .  A
C821        H828   1.082       .  S
C822        S824   1.808       .  S
S823        H826   1.406       .  S
S824        H825   1.406       .  S
C829        C830   1.412       .  A
C829        C834   1.418       .  A
C830        C831   1.395       .  A
C830        H839   1.083       .  S
C831        C832   1.412       .  A
C831        S835   1.810       .  S
C832        C833   1.411       .  A
C833        C834   1.409       .  A
C833        H840   1.084       .  S
C834        S836   1.797       .  S
S835        H838   1.407       .  S
S836        H837   1.409       .  S
C841        C842   1.403       .  A
C841        C846   1.408       .  A
C842        C843   1.404       .  A
C842        H851   1.082       .  S
C843        C844   1.423       .  A
C843        S847   1.808       .  S
C844        C845   1.417       .  A
C845        C846   1.402       .  A
C845        H852   1.073       .  S
C846        S848   1.803       .  S
S847        H850   1.406       .  S
S848        H849   1.408       .  S
C853        C854   1.412       .  A
C853        C858   1.420       .  A
C854        C855   1.396       .  A
C854        H863   1.084       .  S
C855        C856   1.412       .  A
C855        S859   1.802       .  S
C856        C857   1.406       .  A
C857        C858   1.405       .  A
C857        H864   1.084       .  S
C858        S860   1.800       .  S
S859        H862   1.408       .  S
S860        H861   1.408       .  S
C865        C866   1.403       .  A
C865        C870   1.412       .  A
C866        C867   1.403       .  A
C866        H875   1.083       .  S
C867        C868   1.414       .  A
C867        S871   1.797       .  S
C868        C869   1.406       .  A
C869        C870   1.392       .  A
C869        H876   1.083       .  S
C870        S872   1.805       .  S
S871        H874   1.406       .  S
S872        H873   1.406       .  S
C877        C878   1.411       .  A
C877        C882   1.419       .  A
C878        C879   1.393       .  A
C878        H887   1.084       .  S
C879        C880   1.410       .  A
C879        S883   1.804       .  S
C880        C881   1.405       .  A
C881        C882   1.405       .  A
C881        H888   1.084       .  S
C882        S884   1.802       .  S
S883        H886   1.408       .  S
S884        H885   1.407       .  S
C889        C890   1.399       .  A
C889        C894   1.411       .  A
C890        C891   1.400   1_655  A
C890        H899   1.084       .  S
C891        C892   1.413       .  A
C891        S895   1.796       .  S
C892        C893   1.401       .  A
C893        C894   1.400   1_455  A
C893        H900   1.084       .  S
C894        S896   1.799       .  S
S895        H898   1.402       .  S
S896        H897   1.406       .  S
C901        C902   1.409       .  A
C901        C906   1.429       .  A
C902        C903   1.402       .  A
C902        H911   1.078       .  S
C903        C904   1.413       .  A
C903        S907   1.802       .  S
C904        C905   1.396       .  A
C905        C906   1.397       .  A
C905        H912   1.083       .  S
C906        S908   1.814       .  S
S907        H910   1.408       .  S
S908        H909   1.407       .  S
C913        C914   1.401       .  A
C913        C918   1.411       .  A
C914        C915   1.401   1_655  A
C914        H923   1.084       .  S
C915        C916   1.416       .  A
C915        S919   1.804       .  S
C916        C917   1.399       .  A
C917        C918   1.396   1_455  A
C917        H924   1.079       .  S
C918        S920   1.803       .  S
S919        H922   1.400       .  S
S920        H921   1.405       .  S
C925        C926   1.404       .  A
C925        C930   1.414       .  A
C926        C927   1.399       .  A
C926        H935   1.077       .  S
C927        C928   1.424       .  A
C927        S931   1.808       .  S
C928        C929   1.411       .  A
C929        C930   1.395       .  A
C929        H936   1.082       .  S
C930        S932   1.805       .  S
S931        H934   1.407       .  S
S932        H933   1.401       .  S
C937        C938   1.408       .  A
C937        C942   1.419       .  A
C938        C939   1.391       .  A
C938        H947   1.085       .  S
C939        C940   1.414       .  A
C939        S943   1.803       .  S
C940        C941   1.404       .  A
C941        C942   1.405       .  A
C941        H948   1.084       .  S
C942        S944   1.799       .  S
S943        H946   1.408       .  S
S944        H945   1.408       .  S
C949        C950   1.404       .  A
C949        C954   1.411       .  A
C950        C951   1.406       .  A
C950        H959   1.083       .  S
C951        C952   1.415       .  A
C951        S955   1.805       .  S
C952        C953   1.402       .  A
C953        C954   1.391       .  A
C953        H960   1.084       .  S
C954        S956   1.803       .  S
S955        H958   1.407       .  S
S956        H957   1.399       .  S
C961        C962   1.409       .  A
C961        C966   1.422       .  A
C962        C963   1.397       .  A
C962        H971   1.084       .  S
C963        C964   1.415       .  A
C963        S967   1.804       .  S
C964        C965   1.402       .  A
C965        C966   1.405       .  A
C965        H972   1.084       .  S
C966        S968   1.803       .  S
S967        H970   1.407       .  S
S968        H969   1.407       .  S
C973        C974   1.404       .  A
C973        C978   1.412       .  A
C974        C975   1.397       .  A
C974        H983   1.082       .  S
C975        C976   1.409       .  A
C975        S979   1.806       .  S
C976        C977   1.404       .  A
C977        C978   1.404       .  A
C977        H984   1.084       .  S
C978        S980   1.799       .  S
S979        H982   1.407       .  S
S980        H981   1.403       .  S
C985        C986   1.408       .  A
C985        C990   1.415       .  A
C986        C987   1.397       .  A
C986        H995   1.083       .  S
C987        C988   1.413       .  A
C987        S991   1.804       .  S
C988        C989   1.404       .  A
C989        C990   1.407       .  A
C989        H996   1.079       .  S
C990        S992   1.802       .  S
S991        H994   1.406       .  S
S992        H993   1.407       .  S
C997        C998   1.395       .  A
C997       C1002   1.416       .  A
C998        C999   1.395       .  A
C998       H1007   1.083       .  S
C999       C1000   1.431       .  A
C999       S1003   1.816       .  S
C1000      C1001   1.408       .  A
C1001      C1002   1.407       .  A
C1001      H1008   1.080       .  S
C1002      S1004   1.801       .  S
S1003      H1006   1.407       .  S
S1004      H1005   1.407       .  S
C1009      C1010   1.399       .  A
C1009      C1014   1.411       .  A
C1010      C1011   1.403       .  A
C1010      H1019   1.076       .  S
C1011      C1012   1.412       .  A
C1011      S1015   1.804       .  S
C1012      C1013   1.400       .  A
C1013      C1014   1.398       .  A
C1013      H1020   1.084       .  S
C1014      S1016   1.794       .  S
S1015      H1018   1.404       .  S
S1016      H1017   1.402       .  S
C1021      C1022   1.403       .  A
C1021      C1026   1.413       .  A
C1022      C1023   1.403   1_655  A
C1022      H1031   1.083       .  S
C1023      C1024   1.414       .  A
C1023      S1027   1.799       .  S
C1024      C1025   1.393       .  A
C1025      C1026   1.395   1_455  A
C1025      H1032   1.082       .  S
C1026      S1028   1.796       .  S
S1027      H1030   1.401       .  S
S1028      H1029   1.407   1_655  S
C1033      C1034   1.409       .  A
C1033      C1038   1.429       .  A
C1034      C1035   1.405       .  A
C1034      H1043   1.079       .  S
C1035      C1036   1.415       .  A
C1035      S1039   1.802       .  S
C1036      C1037   1.394       .  A
C1037      C1038   1.394       .  A
C1037      H1044   1.082       .  S
C1038      S1040   1.812       .  S
S1039      H1042   1.408       .  S
S1040      H1041   1.406       .  S
C1045      C1046   1.405       .  A
C1045      C1050   1.411       .  A
C1046      C1047   1.393       .  A
C1046      H1055   1.084       .  S
C1047      C1048   1.409       .  A
C1047      S1051   1.803       .  S
C1048      C1049   1.400       .  A
C1049      C1050   1.400       .  A
C1049      H1056   1.078       .  S
C1050      S1052   1.801       .  S
S1051      H1054   1.406       .  S
S1052      H1053   1.407       .  S
C1057      C1058   1.402       .  A
C1057      C1062   1.410       .  A
C1058      C1059   1.402   1_655  A
C1058      H1067   1.084       .  S
C1059      C1060   1.418       .  A
C1059      S1063   1.808       .  S
C1060      C1061   1.401       .  A
C1061      C1062   1.400   1_455  A
C1061      H1068   1.082       .  S
C1062      S1064   1.799       .  S
S1063      H1066   1.397       .  S
S1064      H1065   1.407       .  S
C1069      C1070   1.398       .  A
C1069      C1074   1.406       .  A
C1070      C1071   1.396       .  A
C1070      H1079   1.081       .  S
C1071      C1072   1.411       .  A
C1071      S1075   1.804       .  S
C1072      C1073   1.398       .  A
C1073      C1074   1.391       .  A
C1073      H1080   1.081       .  S
C1074      S1076   1.805       .  S
S1075      H1078   1.403       .  S
S1076      H1077   1.407       .  S
C1081      C1082   1.415       .  A
C1081      C1086   1.422       .  A
C1082      C1083   1.402       .  A
C1082      H1091   1.075       .  S
C1083      C1084   1.408       .  A
C1083      S1087   1.802       .  S
C1084      C1085   1.403       .  A
C1085      C1086   1.402       .  A
C1085      H1092   1.083       .  S
C1086      S1088   1.811       .  S
S1087      H1090   1.407       .  S
S1088      H1089   1.407       .  S
C1093      C1094   1.402       .  A
C1093      C1098   1.410       .  A
C1094      C1095   1.403       .  A
C1094      H1103   1.083       .  S
C1095      C1096   1.424       .  A
C1095      S1099   1.810       .  S
C1096      C1097   1.416       .  A
C1097      C1098   1.404       .  A
C1097      H1104   1.076       .  S
C1098      S1100   1.803       .  S
S1099      H1102   1.407       .  S
S1100      H1101   1.408       .  S
C1105      C1106   1.402       .  A
C1105      C1110   1.412       .  A
C1106      C1107   1.391       .  A
C1106      H1115   1.078       .  S
C1107      C1108   1.413       .  A
C1107      S1111   1.805       .  S
C1108      C1109   1.408       .  A
C1109      C1110   1.399       .  A
C1109      H1116   1.083       .  S
C1110      S1112   1.803       .  S
S1111      H1114   1.407       .  S
S1112      H1113   1.401       .  S
C1117      C1118   1.417       .  A
C1117      C1122   1.422       .  A
C1118      C1119   1.407       .  A
C1118      H1127   1.072       .  S
C1119      C1120   1.409       .  A
C1119      S1123   1.808       .  S
C1120      C1121   1.401       .  A
C1121      C1122   1.401       .  A
C1121      H1128   1.082       .  S
C1122      S1124   1.806       .  S
S1123      H1126   1.407       .  S
S1124      H1125   1.407       .  S
C1129      C1130   1.400       .  A
C1129      C1134   1.412       .  A
C1130      C1131   1.398       .  A
C1130      H1139   1.083       .  S
C1131      C1132   1.414       .  A
C1131      S1135   1.802       .  S
C1132      C1133   1.400       .  A
C1133      C1134   1.400       .  A
C1133      H1140   1.084       .  S
C1134      S1136   1.794       .  S
S1135      H1138   1.406       .  S
S1136      H1137   1.404       .  S
C1141      C1142   1.402       .  A
C1141      C1146   1.408       .  A
C1142      C1143   1.400       .  A
C1142      H1151   1.082       .  S
C1143      C1144   1.423       .  A
C1143      S1147   1.810       .  S
C1144      C1145   1.415       .  A
C1145      C1146   1.400       .  A
C1145      H1152   1.074       .  S
C1146      S1148   1.802       .  S
S1147      H1150   1.406       .  S
S1148      H1149   1.407       .  S
C1153      C1154   1.397       .  A
C1153      C1158   1.412       .  A
C1154      C1155   1.398       .  A
C1154      H1163   1.082       .  S
C1155      C1156   1.412       .  A
C1155      S1159   1.799       .  S
C1156      C1157   1.401       .  A
C1157      C1158   1.401       .  A
C1157      H1164   1.084       .  S
C1158      S1160   1.793       .  S
S1159      H1162   1.405       .  S
S1160      H1161   1.404       .  S
C1165      C1166   1.402       .  A
C1165      C1170   1.415       .  A
C1166      C1167   1.407       .  A
C1166      H1175   1.079       .  S
C1167      C1168   1.419       .  A
C1167      S1171   1.800       .  S
C1168      C1169   1.409       .  A
C1169      C1170   1.396       .  A
C1169      H1176   1.084       .  S
C1170      S1172   1.808       .  S
S1171      H1174   1.407       .  S
S1172      H1173   1.405       .  S
C1177      C1178   1.409       .  A
C1177      C1182   1.431       .  A
C1178      C1179   1.404       .  A
C1178      H1187   1.078       .  S
C1179      C1180   1.414       .  A
C1179      S1183   1.802       .  S
C1180      C1181   1.397       .  A
C1181      C1182   1.401       .  A
C1181      H1188   1.082       .  S
C1182      S1184   1.814       .  S
S1183      H1186   1.407       .  S
S1184      H1185   1.406       .  S
C1189      C1190   1.402       .  A
C1189      C1194   1.413       .  A
C1190      C1191   1.392       .  A
C1190      H1199   1.083       .  S
C1191      C1192   1.409       .  A
C1191      S1195   1.811       .  S
C1192      C1193   1.402       .  A
C1193      C1194   1.404       .  A
C1193      H1200   1.084       .  S
C1194      S1196   1.801       .  S
S1195      H1198   1.407       .  S
S1196      H1197   1.399       .  S
C1201      C1202   1.399       .  A
C1201      C1206   1.415       .  A
C1202      C1203   1.400       .  A
C1202      H1211   1.082       .  S
C1203      C1204   1.428       .  A
C1203      S1207   1.815       .  S
C1204      C1205   1.409       .  A
C1205      C1206   1.401       .  A
C1205      H1212   1.078       .  S
C1206      S1208   1.802       .  S
S1207      H1210   1.406       .  S
S1208      H1209   1.407       .  S
C1213      C1214   1.403       .  A
C1213      C1218   1.414       .  A
C1214      C1215   1.394       .  A
C1214      H1223   1.084       .  S
C1215      C1216   1.411       .  A
C1215      S1219   1.809       .  S
C1216      C1217   1.401       .  A
C1217      C1218   1.404       .  A
C1217      H1224   1.084       .  S
C1218      S1220   1.797       .  S
S1219      H1222   1.407       .  S
S1220      H1221   1.400       .  S
C1225      C1226   1.407       .  A
C1225      C1230   1.415       .  A
C1226      C1227   1.399       .  A
C1226      H1235   1.084       .  S
C1227      C1228   1.410       .  A
C1227      S1231   1.803       .  S
C1228      C1229   1.402       .  A
C1229      C1230   1.400       .  A
C1229      H1236   1.081       .  S
C1230      S1232   1.804       .  S
S1231      H1234   1.407       .  S
S1232      H1233   1.407       .  S
C1237      C1238   1.415       .  A
C1237      C1242   1.422       .  A
C1238      C1239   1.394       .  A
C1238      H1247   1.085       .  S
C1239      C1240   1.407       .  A
C1239      S1243   1.803       .  S
C1240      C1241   1.405       .  A
C1241      C1242   1.406       .  A
C1241      H1248   1.084       .  S
C1242      S1244   1.796       .  S
S1243      H1246   1.408       .  S
S1244      H1245   1.408       .  S
C1249      C1250   1.398       .  A
C1249      C1254   1.410       .  A
C1250      C1251   1.393       .  A
C1250      H1259   1.082       .  S
C1251      C1252   1.410       .  A
C1251      S1255   1.794       .  S
C1252      C1253   1.404       .  A
C1253      C1254   1.400       .  A
C1253      H1260   1.084       .  S
C1254      S1256   1.800       .  S
S1255      H1258   1.405       .  S
S1256      H1257   1.404       .  S
C1261      C1262   1.401       .  A
C1261      C1266   1.410       .  A
C1262      C1263   1.401       .  A
C1262      H1271   1.083       .  S
C1263      C1264   1.413       .  A
C1263      S1267   1.800       .  S
C1264      C1265   1.401       .  A
C1265      C1266   1.397       .  A
C1265      H1272   1.084       .  S
C1266      S1268   1.803       .  S
S1267      H1270   1.403       .  S
S1268      H1269   1.407       .  S
C1273      C1274   1.413       .  A
C1273      C1278   1.425       .  A
C1274      C1275   1.406       .  A
C1274      H1283   1.075       .  S
C1275      C1276   1.409       .  A
C1275      S1279   1.808       .  S
C1276      C1277   1.401       .  A
C1277      C1278   1.402       .  A
C1277      H1284   1.083       .  S
C1278      S1280   1.814       .  S
S1279      H1282   1.406       .  S
S1280      H1281   1.406       .  S
C1285      C1286   1.401       .  A
C1285      C1290   1.413       .  A
C1286      C1287   1.399       .  A
C1286      H1295   1.085       .  S
C1287      C1288   1.411       .  A
C1287      S1291   1.799       .  S
C1288      C1289   1.401       .  A
C1289      C1290   1.397       .  A
C1289      H1296   1.084       .  S
C1290      S1292   1.804       .  S
S1291      H1294   1.403       .  S
S1292      H1293   1.402       .  S
C1297      C1298   1.400       .  A
C1297      C1302   1.413       .  A
C1298      C1299   1.395       .  A
C1298      H1307   1.084       .  S
C1299      C1300   1.410       .  A
C1299      S1303   1.800       .  S
C1300      C1301   1.402       .  A
C1301      C1302   1.402       .  A
C1301      H1308   1.084       .  S
C1302      S1304   1.800       .  S
S1303      H1306   1.406       .  S
S1304      H1305   1.402       .  S
C1309      C1310   1.403       .  A
C1309      C1314   1.416       .  A
C1310      C1311   1.395       .  A
C1310      H1319   1.078       .  S
C1311      C1312   1.422       .  A
C1311      S1315   1.807       .  S
C1312      C1313   1.411       .  A
C1313      C1314   1.401       .  A
C1313      H1320   1.083       .  S
C1314      S1316   1.804       .  S
S1315      H1318   1.408       .  S
S1316      H1317   1.403       .  S
C1321      C1322   1.536       .  S
C1321      C1327   1.552       .  S
C1321      C1325   1.550       .  S
C1321      C2593   1.541       .  S
C1322      H1329   1.087       .  S
C1322      C1323   1.356       .  D
C1323      C1324   1.529       .  S
C1323      C2605   1.475       .  S
C1324      C1328   1.541       .  S
C1324      C1326   1.528       .  S
C1324      H1330   1.108       .  S
C1325      H1331   1.085       .  S
C1325      C1326   1.366       .  D
C1326      C2620   1.479       .  S
C1327      H1332   1.077       .  S
C1327      C1328   1.372       .  D
C1328      C2629   1.498       .  S
C1333      C1334   1.544       .  S
C1333      C1339   1.537       .  S
C1333      C1337   1.552       .  S
C1333      C2557   1.545       .  S
C1334      H1341   1.085       .  S
C1334      C1335   1.374       .  D
C1335      C1336   1.535       .  S
C1335      C2632   1.506       .  S
C1336      C1340   1.532       .  S
C1336      C1338   1.533       .  S
C1336      H1342   1.100       .  S
C1337      H1343   1.077       .  S
C1337      C1338   1.368       .  D
C1338      C2581   1.477       .  S
C1339      H1344   1.088       .  S
C1339      C1340   1.353       .  D
C1340      C2569   1.471       .  S
C1345      C1346   1.538       .  S
C1345      C1351   1.530       .  S
C1345      C1349   1.551       .  S
C1345      C2524   1.538       .  S
C1346      H1353   1.086       .  S
C1346      C1347   1.366       .  D
C1347      C1348   1.540       .  S
C1347      C2545   1.495       .  S
C1348      C1352   1.535       .  S
C1348      C1350   1.542       .  S
C1348      H1354   1.108       .  S
C1349      H1355   1.083       .  S
C1349      C1350   1.372       .  D
C1350      C2617   1.478       .  S
C1351      H1356   1.088       .  S
C1351      C1352   1.358       .  D
C1352      C2533   1.480       .  S
C1357      C1358   1.534       .  S
C1357      C1363   1.543       .  S
C1357      C1361   1.549       .  S
C1357      C2497   1.537       .  S
C1358      H1365   1.088       .  S
C1358      C1359   1.358       .  D
C1359      C1360   1.527       .  S
C1359      C2509   1.476       .  S
C1360      C1364   1.534       .  S
C1360      C1362   1.541       .  S
C1360      H1366   1.111       .  S
C1361      H1367   1.082       .  S
C1361      C1362   1.370       .  D
C1362      C2584   1.476       .  S
C1363      H1368   1.085       .  S
C1363      C1364   1.367       .  D
C1364      C2548   1.489       .  S
C1369      C1370   1.547       .  S
C1369      C1375   1.536       .  S
C1369      C1373   1.535       .  S
C1369      C2464   1.540       .  S
C1370      H1377   1.079       .  S
C1370      C1371   1.372       .  D
C1371      C1372   1.545       .  S
C1371      C2488   1.506       .  S
C1372      C1376   1.532       .  S
C1372      C1374   1.553       .  S
C1372      H1378   1.107       .  S
C1373      H1379   1.085       .  S
C1373      C1374   1.365       .  D
C1374      C2473   1.480       .  S
C1375      H1380   1.088       .  S
C1375      C1376   1.357       .  D
C1376      C2608   1.478       .  S
C1381      C1382   1.536       .  S
C1381      C1387   1.552       .  S
C1381      C1385   1.548       .  S
C1381      C2437   1.549       .  S
C1382      H1389   1.088       .  S
C1382      C1383   1.357       .  D
C1383      C1384   1.526       .  S
C1383      C2572   1.475       .  S
C1384      C1388   1.536       .  S
C1384      C1386   1.540       .  S
C1384      H1390   1.110       .  S
C1385      H1391   1.085       .  S
C1385      C1386   1.373       .  D
C1386      C2449   1.485       .  S
C1387      H1392   1.081       .  S
C1387      C1388   1.368       .  D
C1388      C2485   1.491       .  S
C1393      C1394   1.537       .  S
C1393      C1399   1.558       .  S
C1393      C1397   1.545       .  S
C1393      C2416   1.543       .  S
C1394      H1401   1.087       .  S
C1394      C1395   1.356       .  D
C1395      C1396   1.526       .  S
C1395      C2536   1.475       .  S
C1396      C1400   1.532       .  S
C1396      C1398   1.528       .  S
C1396      H1402   1.111       .  S
C1397      H1403   1.085       .  S
C1397      C1398   1.366       .  D
C1398      C2476   1.472       .  S
C1399      H1404   1.080       .  S
C1399      C1400   1.373       .  D
C1400      C2425   1.488       .  S
C1405      C1406   1.552       .  S
C1405      C1411   1.531       .  S
C1405      C1409   1.548       .  S
C1405      C2401   1.543       .  S
C1406      H1413   1.080       .  S
C1406      C1407   1.371       .  D
C1407      C1408   1.534       .  S
C1407      C2428   1.491       .  S
C1408      C1412   1.531       .  S
C1408      C1410   1.531       .  S
C1408      H1414   1.108       .  S
C1409      H1415   1.085       .  S
C1409      C1410   1.370       .  D
C1410      C2452   1.479       .  S
C1411      H1416   1.088       .  S
C1411      C1412   1.354       .  D
C1412      C2512   1.470       .  S
C1417      C1418   1.533       .  S
C1417      C1423   1.532       .  S
C1417      C1421   1.561       .  S
C1417      C2353   1.533       .  S
C1418      H1425   1.087       .  S
C1418      C1419   1.364       .  D
C1419      C1420   1.527       .  S
C1419      C2365   1.481       .  S
C1420      C1424   1.529       .  S
C1420      C1422   1.528       .  S
C1420      H1426   1.110       .  S
C1421      H1427   1.082       .  S
C1421      C1422   1.376       .  D
C1422      C2377   1.474       .  S
C1423      H1428   1.087       .  S
C1423      C1424   1.354       .  D
C1424      C2389   1.461       .  S
C1429      C1430   1.527       .  S
C1429      C1435   1.538       .  S
C1429      C1433   1.555       .  S
C1429      C2320   1.534       .  S
C1430      H1437   1.088       .  S
C1430      C1431   1.349       .  D
C1431      C1432   1.538       .  S
C1431      C2392   1.464       .  S
C1432      C1436   1.535       .  S
C1432      C1434   1.546       .  S
C1432      H1438   1.110       .  S
C1433      H1439   1.083       .  S
C1433      C1434   1.384       .  D
C1434      C2341   1.489       .  S
C1435      H1440   1.087       .  S
C1435      C1436   1.359       .  D
C1436      C2329   1.486       .  S
C1441      C1442   1.546       .  S
C1441      C1447   1.542       .  S
C1441      C1445   1.529       .  S
C1441      C2281   1.542       .  S
C1442      H1449   1.082       .  S
C1442      C1443   1.372       .  D
C1443      C1444   1.545       .  S
C1443      C2305   1.502       .  S
C1444      C1448   1.534       .  S
C1444      C1446   1.553       .  S
C1444      H1450   1.110       .  S
C1445      H1451   1.086       .  S
C1445      C1446   1.364       .  D
C1446      C2380   1.481       .  S
C1447      H1452   1.087       .  S
C1447      C1448   1.363       .  D
C1448      C2293   1.480       .  S
C1453      C1454   1.539       .  S
C1453      C1459   1.550       .  S
C1453      C1457   1.539       .  S
C1453      C2257   1.542       .  S
C1454      H1461   1.088       .  S
C1454      C1455   1.357       .  D
C1455      C1456   1.529       .  S
C1455      C2269   1.477       .  S
C1456      C1460   1.538       .  S
C1456      C1458   1.544       .  S
C1456      H1462   1.111       .  S
C1457      H1463   1.086       .  S
C1457      C1458   1.365       .  D
C1458      C2344   1.481       .  S
C1459      H1464   1.076       .  S
C1459      C1460   1.373       .  D
C1460      C2308   1.495       .  S
C1465      C1466   1.541       .  S
C1465      C1471   1.526       .  S
C1465      C1469   1.553       .  S
C1465      C2221   1.534       .  S
C1466      H1473   1.084       .  S
C1466      C1467   1.378       .  D
C1467      C1468   1.545       .  S
C1467      C2248   1.515       .  S
C1468      C1472   1.532       .  S
C1468      C1470   1.527       .  S
C1468      H1474   1.094       .  S
C1469      H1475   1.082       .  S
C1469      C1470   1.366       .  D
C1470      C2233   1.469       .  S
C1471      H1476   1.087       .  S
C1471      C1472   1.354       .  D
C1472      C2368   1.475       .  S
C1477      C1478   1.540       .  S
C1477      C1483   1.541       .  S
C1477      C1481   1.551       .  S
C1477      C2197   1.542       .  S
C1478      H1485   1.087       .  S
C1478      C1479   1.356       .  D
C1479      C1480   1.534       .  S
C1479      C2332   1.478       .  S
C1480      C1484   1.544       .  S
C1480      C1482   1.529       .  S
C1480      H1486   1.107       .  S
C1481      H1487   1.081       .  S
C1481      C1482   1.366       .  D
C1482      C2209   1.479       .  S
C1483      H1488   1.083       .  S
C1483      C1484   1.373       .  D
C1484      C2245   1.502       .  S
C1489      C1490   1.549       .  S
C1489      C1495   1.531       .  S
C1489      C1493   1.540       .  S
C1489      C2173   1.539       .  S
C1490      H1497   1.087       .  S
C1490      C1491   1.362       .  D
C1491      C1492   1.527       .  S
C1491      C2296   1.480       .  S
C1492      C1496   1.544       .  S
C1492      C1494   1.544       .  S
C1492      H1498   1.110       .  S
C1493      H1499   1.081       .  S
C1493      C1494   1.365       .  D
C1494      C2236   1.478       .  S
C1495      H1500   1.087       .  S
C1495      C1496   1.369       .  D
C1496      C2188   1.494       .  S
C1501      C1502   1.546       .  S
C1501      C1507   1.538       .  S
C1501      C1505   1.550       .  S
C1501      C2164   1.546       .  S
C1502      H1509   1.080       .  S
C1502      C1503   1.364       .  D
C1503      C1504   1.533       .  S
C1503      C2185   1.481       .  S
C1504      C1508   1.526       .  S
C1504      C1506   1.534       .  S
C1504      H1510   1.111       .  S
C1505      H1511   1.085       .  S
C1505      C1506   1.372       .  D
C1506      C2212   1.480       .  S
C1507      H1512   1.087       .  S
C1507      C1508   1.361       .  D
C1508      C2272   1.481       .  S
In1513     O1515   2.249       .  S
In1513     O1516   2.276       .  S
In1513     O1524   2.260       .  S
In1513     O1518   2.245       .  S
In1513     O1520   2.248       .  S
In1513     O1521   2.252       .  S
In1513     O1522   2.237       .  S
In1513     O1525   2.258       .  S
C1514      O1520   1.260       .  A
C1514      O1522   1.259       .  A
O1515      C1523   1.259       .  A
O1516      C1523   1.262       .  A
C1517      O1524   1.263       .  A
C1517      O1518   1.257       .  A
C1517      C2560   1.481       .  S
C1519      O1521   1.259       .  A
C1519      O1525   1.259       .  A
C1519      C1527   1.468       .  S
C1523      C1588   1.473       .  S
In1526     O1528   2.260       .  S
In1526     O1529   2.245       .  S
In1526     O1537   2.258       .  S
In1526     O1531   2.243       .  S
In1526     O1533   2.261       .  S
In1526     O1534   2.238       .  S
In1526     O1535   2.254       .  S
In1526     O1538   2.243       .  S
C1527      O1533   1.259       .  A
C1527      O1535   1.259       .  A
O1528      C1536   1.262       .  A
O1529      C1536   1.259       .  A
C1530      O1537   1.260       .  A
C1530      O1531   1.260       .  A
C1530      C2152   1.489       .  S
C1532      O1534   1.259       .  A
C1532      O1538   1.261       .  A
C1536      C1627   1.468       .  S
In1539     O1541   2.275       .  S
In1539     O1542   2.244       .  S
In1539     O1550   2.229       .  S
In1539     O1544   2.270       .  S
In1539     O1546   2.254       .  S
In1539     O1547   2.240       .  S
In1539     O1548   2.253       .  S
In1539     O1551   2.250       .  S
C1540      O1546   1.259       .  A
C1540      O1548   1.259       .  A
C1540      C1553   1.466       .  S
O1541      C1549   1.262       .  A
O1542      C1549   1.258       .  A
C1543      O1550   1.257       .  A
C1543      O1544   1.262       .  A
C1543      C2596   1.482       .  S
C1545      O1547   1.259       .  A
C1545      O1551   1.260       .  A
C1549      C1614   1.472       .  S
In1552     O1554   2.238       .  S
In1552     O1555   2.245       .  S
In1552     O1563   2.217       .  S
In1552     O1557   2.269       .  S
In1552     O1559   2.253       .  S
In1552     O1560   2.247       .  S
In1552     O1561   2.254       .  S
In1552     O1564   2.280       .  S
C1553      O1559   1.259       .  A
C1553      O1561   1.260       .  A
O1554      C1562   1.257       .  A
O1555      C1562   1.260       .  A
C1556      O1563   1.255       .  A
C1556      O1557   1.263       .  A
C1556      C2140   1.484       .  S
C1558      O1560   1.257       .  A
C1558      O1564   1.260       .  A
C1558      C1649   1.472       .  S
In1565     O1567   2.252       .  S
In1565     O1568   2.251       .  S
In1565     O1576   2.239       .  S
In1565     O1570   2.277       .  S
In1565     O1572   2.252       .  S
In1565     O1573   2.244       .  S
In1565     O1574   2.263       .  S
In1565     O1577   2.273       .  S
C1566      O1572   1.259       .  A
C1566      O1574   1.259       .  A
C1566      C1579   1.469       .  S
O1567      C1575   1.259       .  A
O1568      C1575   1.259       .  A
C1569      O1576   1.256       .  A
C1569      O1570   1.263       .  A
C1569      C2161   1.486       .  S
C1571      O1573   1.259       .  A
C1571      O1577   1.261       .  A
C1571      C1636   1.470       .  S
In1578     O1580   2.275       .  S
In1578     O1581   2.246       .  S
In1578     O1589   2.246       .  S
In1578     O1583   2.265       .  S
In1578     O1585   2.253       .  S
In1578     O1586   2.250       .  S
In1578     O1587   2.266       .  S
In1578     O1590   2.236       .  S
C1579      O1585   1.258       .  A
C1579      O1587   1.260       .  A
O1580      C1588   1.263       .  A
O1581      C1588   1.259       .  A
C1582      O1589   1.258       .  A
C1582      O1583   1.262       .  A
C1582      C2440   1.490       .  S
C1584      O1586   1.260       .  A
C1584      O1590   1.260       .  A
In1591     O1593   2.274       .  S
In1591     O1594   2.228       .  S
In1591     O1602   2.245       .  S
In1591     O1596   2.247       .  S
In1591     O1598   2.252       .  S
In1591     O1599   2.234       .  S
In1591     O1600   2.260       .  S
In1591     O1603   2.235       .  S
C1592      O1598   1.260       .  A
C1592      O1600   1.261       .  A
C1592      C1610   1.470       .  S
O1593      C1601   1.263       .  A
O1594      C1601   1.257       .  A
C1595      O1602   1.257       .  A
C1595      O1596   1.262       .  A
C1595      C2176   1.479       .  S
C1597      O1599   1.260       .  A
C1597      O1603   1.261       .  A
C1601      C1666   1.465       .  S
In1604     O1606   2.246       .  S
In1604     O1607   2.280       .  S
In1604     O1615   2.270       .  S
In1604     O1609   2.223       .  S
In1604     O1611   2.231       .  S
In1604     O1612   2.263       .  S
In1604     O1613   2.237       .  S
In1604     O1616   2.254       .  S
C1605      O1611   1.258       .  A
C1605      O1613   1.260       .  A
O1606      C1614   1.257       .  A
O1607      C1614   1.262       .  A
C1608      O1615   1.263       .  A
C1608      O1609   1.255       .  A
C1608      C2461   1.483       .  S
C1610      O1612   1.260       .  A
C1610      O1616   1.258       .  A
In1617     O1619   2.253       .  S
In1617     O1620   2.267       .  S
In1617     O1628   2.277       .  S
In1617     O1622   2.237       .  S
In1617     O1624   2.234       .  S
In1617     O1625   2.259       .  S
In1617     O1626   2.260       .  S
In1617     O1629   2.248       .  S
C1618      O1624   1.257       .  A
C1618      O1626   1.260       .  A
O1619      C1627   1.257       .  A
O1620      C1627   1.258       .  A
C1621      O1628   1.263       .  A
C1621      O1622   1.255       .  A
C1621      C2125   1.487       .  S
C1623      O1625   1.259       .  A
C1623      O1629   1.260       .  A
C1623      C1640   1.467       .  S
In1630     O1632   2.243       .  S
In1630     O1633   2.265       .  S
In1630     O1641   2.268       .  S
In1630     O1635   2.222       .  S
In1630     O1637   2.227       .  S
In1630     O1638   2.275       .  S
In1630     O1639   2.250       .  S
In1630     O1642   2.241       .  S
C1631      O1637   1.258       .  A
C1631      O1639   1.260       .  A
O1632      C1640   1.257       .  A
O1633      C1640   1.261       .  A
C1634      O1641   1.264       .  A
C1634      O1635   1.255       .  A
C1634      C2260   1.481       .  S
C1636      O1638   1.263       .  A
C1636      O1642   1.258       .  A
In1643     O1645   2.243       .  S
In1643     O1646   2.261       .  S
In1643     O1654   2.271       .  S
In1643     O1648   2.237       .  S
In1643     O1650   2.237       .  S
In1643     O1651   2.278       .  S
In1643     O1652   2.244       .  S
In1643     O1655   2.244       .  S
C1644      O1650   1.261       .  A
C1644      O1652   1.260       .  A
O1645      C1653   1.258       .  A
O1646      C1653   1.262       .  A
C1647      O1654   1.262       .  A
C1647      O1648   1.258       .  A
C1647      C2113   1.489       .  S
C1649      O1651   1.262       .  A
C1649      O1655   1.258       .  A
C1653      C1662   1.466       .  S
In1656     O1658   2.232       .  S
In1656     O1659   2.272       .  S
In1656     O1667   2.283       .  S
In1656     O1661   2.235       .  S
In1656     O1663   2.238       .  S
In1656     O1664   2.255       .  S
In1656     O1665   2.240       .  S
In1656     O1668   2.250       .  S
C1657      O1663   1.260       .  A
C1657      O1665   1.259       .  A
O1658      C1666   1.257       .  A
O1659      C1666   1.261       .  A
C1660      O1667   1.263       .  A
C1660      O1661   1.254       .  A
C1660      C2284   1.482       .  S
C1662      O1664   1.259       .  A
C1662      O1668   1.260       .  A
In1669     O1671   2.229       .  S
In1669     O1672   2.276       .  S
In1669     O1680   2.272       .  S
In1669     O1674   2.232       .  S
In1669     O1676   2.245       .  S
In1669     O1677   2.260       .  S
In1669     O1678   2.244       .  S
In1669     O1681   2.251       .  S
C1670      O1676   1.259       .  A
C1670      O1678   1.259       .  A
O1671      C1679   1.258       .  A
O1672      C1679   1.264       .  A
C1673      O1680   1.264       .  A
C1673      O1674   1.257       .  A
C1673      C2404   1.487       .  S
C1675      O1677   1.260       .  A
C1675      O1681   1.259       .  A
C1675      C1683   1.468       .  S
C1679      C1796   1.468       .  S
In1682     O1684   2.280       .  S
In1682     O1685   2.235       .  S
In1682     O1693   2.235       .  S
In1682     O1687   2.264       .  S
In1682     O1689   2.252       .  S
In1682     O1691   2.262       .  S
In1682     O1694   2.246       .  S
C1683      O1689   1.258       .  A
C1683      O1691   1.259       .  A
O1684      C1692   1.263       .  A
O1685      C1692   1.257       .  A
C1686      O1693   1.258       .  A
C1686      O1687   1.263       .  A
C1686      C2101   1.486       .  S
C1688      O1690   1.260       .  A
C1688      C1718   1.458   1_554  S
C1692      C1744   1.470       .  S
In1695     O1697   2.277       .  S
In1695     O1698   2.252       .  S
In1695     O1706   2.240       .  S
In1695     O1700   2.279       .  S
In1695     O1702   2.260       .  S
In1695     O1703   2.245       .  S
In1695     O1704   2.274       .  S
In1695     O1707   2.236       .  S
C1696      O1702   1.258       .  A
C1696      O1704   1.260       .  A
C1696      C1709   1.474       .  S
O1697      C1705   1.261       .  A
O1698      C1705   1.257       .  A
C1699      O1706   1.255       .  A
C1699      O1700   1.263       .  A
C1699      C2413   1.486       .  S
C1701      O1703   1.260       .  A
C1701      O1707   1.259       .  A
C1705      C1822   1.472       .  S
In1708     O1710   2.236       .  S
In1708     O1711   2.247       .  S
In1708     O1719   2.229       .  S
In1708     O1713   2.272       .  S
In1708     O1715   2.256       .  S
In1708     O1716   2.233       .  S
In1708     O1717   2.269       .  S
In1708     O1720   2.285       .  S
C1709      O1715   1.259       .  A
C1709      O1717   1.261       .  A
O1710      C1718   1.258       .  A
O1711      C1718   1.260       .  A
C1712      O1719   1.254       .  A
C1712      O1713   1.265       .  A
C1712      C2092   1.483       .  S
C1714      O1716   1.257       .  A
C1714      O1720   1.263       .  A
C1714      C1766   1.470       .  S
In1721     O1723   2.248       .  S
In1721     O1724   2.247       .  S
In1721     O1732   2.244       .  S
In1721     O1726   2.246       .  S
In1721     O1728   2.245       .  S
In1721     O1729   2.269       .  S
In1721     O1730   2.236       .  S
In1721     O1733   2.238       .  S
C1722      C1748   1.460   1_554  S
O1723      C1731   1.259       .  A
O1724      C1731   1.260       .  A
C1725      O1732   1.261       .  A
C1725      O1726   1.259       .  A
C1725      C2200   1.479       .  S
C1727      O1729   1.262       .  A
C1727      O1733   1.258       .  A
C1727      C1779   1.467       .  S
C1731      C1740   1.463       .  S
In1734     O1736   2.238       .  S
In1734     O1737   2.282       .  S
In1734     O1745   2.269       .  S
In1734     O1739   2.231       .  S
In1734     O1741   2.235       .  S
In1734     O1742   2.243       .  S
In1734     O1743   2.243       .  S
In1734     O1746   2.247       .  S
C1735      O1741   1.258       .  A
C1735      O1743   1.258       .  A
O1736      C1744   1.256       .  A
O1737      C1744   1.261       .  A
C1738      O1745   1.263       .  A
C1738      O1739   1.257       .  A
C1738      C2077   1.487       .  S
C1740      O1742   1.260       .  A
C1740      O1746   1.260       .  A
In1747     O1749   2.244       .  S
In1747     O1750   2.250       .  S
In1747     O1758   2.244       .  S
In1747     O1752   2.244       .  S
In1747     O1754   2.250       .  S
In1747     O1755   2.247       .  S
In1747     O1756   2.237       .  S
In1747     O1759   2.240       .  S
C1748      O1754   1.260       .  A
C1748      O1756   1.259       .  A
O1749      C1757   1.260       .  A
O1750      C1757   1.259       .  A
C1751      O1758   1.260       .  A
C1751      O1752   1.257       .  A
C1751      C2224   1.482       .  S
C1753      O1755   1.258       .  A
C1753      O1759   1.259       .  A
C1753      C1770   1.459       .  S
C1757      C1809   1.463       .  S
In1760     O1762   2.232       .  S
In1760     O1763   2.253       .  S
In1760     O1771   2.268       .  S
In1760     O1765   2.226       .  S
In1760     O1767   2.225       .  S
In1760     O1768   2.282       .  S
In1760     O1769   2.249       .  S
In1760     O1772   2.233       .  S
C1761      O1767   1.259       .  A
C1761      O1769   1.260       .  A
O1762      C1770   1.257       .  A
O1763      C1770   1.261       .  A
C1764      O1771   1.263       .  A
C1764      O1765   1.255       .  A
C1764      C2065   1.483       .  S
C1766      O1768   1.262       .  A
C1766      O1772   1.257       .  A
In1773     O1775   2.249       .  S
In1773     O1776   2.225       .  S
In1773     O1784   2.253       .  S
In1773     O1778   2.244       .  S
In1773     O1780   2.267       .  S
In1773     O1781   2.237       .  S
In1773     O1782   2.244       .  S
In1773     O1785   2.267       .  S
C1774      O1780   1.260       .  A
C1774      O1782   1.257       .  A
C1774      C1787   1.468       .  S
O1775      C1783   1.261       .  A
O1776      C1783   1.257       .  A
C1777      O1784   1.258       .  A
C1777      O1778   1.263       .  A
C1777      C2317   1.483       .  S
C1779      O1781   1.259       .  A
C1779      O1785   1.262       .  A
In1786     O1788   2.274       .  S
In1786     O1789   2.237       .  S
In1786     O1797   2.244       .  S
In1786     O1791   2.253       .  S
In1786     O1793   2.265       .  S
In1786     O1794   2.243       .  S
In1786     O1795   2.249       .  S
In1786     O1798   2.252       .  S
C1787      O1793   1.259       .  A
C1787      O1795   1.258       .  A
O1788      C1796   1.262       .  A
O1789      C1796   1.259       .  A
C1790      O1797   1.258       .  A
C1790      O1791   1.263       .  A
C1790      C2500   1.486       .  S
C1792      O1794   1.259       .  A
C1792      O1798   1.261       .  A
In1799     O1801   2.256       .  S
In1799     O1802   2.238       .  S
In1799     O1810   2.230       .  S
In1799     O1804   2.245       .  S
In1799     O1806   2.247       .  S
In1799     O1807   2.219       .  S
In1799     O1808   2.259       .  S
In1799     O1811   2.240       .  S
C1800      O1806   1.258       .  A
C1800      O1808   1.260       .  A
C1800      C1818   1.467       .  S
O1801      C1809   1.263       .  A
O1802      C1809   1.258       .  A
C1803      O1810   1.256       .  A
C1803      O1804   1.263       .  A
C1803      C2356   1.478       .  S
C1805      O1807   1.259       .  A
C1805      O1811   1.260       .  A
In1812     O1814   2.251       .  S
In1812     O1815   2.270       .  S
In1812     O1823   2.256       .  S
In1812     O1817   2.250       .  S
In1812     O1819   2.257       .  S
In1812     O1820   2.261       .  S
In1812     O1821   2.246       .  S
In1812     O1824   2.253       .  S
C1813      O1819   1.260       .  A
C1813      O1821   1.260       .  A
O1814      C1822   1.260       .  A
O1815      C1822   1.261       .  A
C1816      O1823   1.262       .  A
C1816      O1817   1.257       .  A
C1816      C2521   1.485       .  S
C1818      O1820   1.258       .  A
C1818      O1824   1.258       .  A
C1825      C1826   1.544       .  S
C1825      C1831   1.536       .  S
C1825      C1829   1.550       .  S
C1825      C2137   1.541       .  S
C1826      H1833   1.079       .  S
C1826      C1827   1.361       .  D
C1827      C1828   1.533       .  S
C1827      C2056   1.476       .  S
C1828      C1832   1.532       .  S
C1828      C1830   1.536       .  S
C1828      H1834   1.111       .  S
C1829      H1835   1.085       .  S
C1829      C1830   1.372       .  D
C1830      C2044   1.483       .  S
C1831      H1836   1.086       .  S
C1831      C1832   1.360       .  D
C1832      C2029   1.479       .  S
C1837      C1838   1.538       .  S
C1837      C1843   1.536       .  S
C1837      C1841   1.554       .  S
C1837      C2149   1.542       .  S
C1838      H1845   1.088       .  S
C1838      C1839   1.361       .  D
C1839      C1840   1.533       .  S
C1839      C2005   1.487       .  S
C1840      C1844   1.533       .  S
C1840      C1842   1.534       .  S
C1840      H1846   1.110       .  S
C1841      H1847   1.076       .  S
C1841      C1842   1.371       .  D
C1842      C2017   1.479       .  S
C1843      H1848   1.087       .  S
C1843      C1844   1.363       .  D
C1844      C2053   1.474       .  S
C1849      C1850   1.536       .  S
C1849      C1855   1.544       .  S
C1849      C1853   1.539       .  S
C1849      C2068   1.540       .  S
C1850      H1857   1.087       .  S
C1850      C1851   1.359       .  D
C1851      C1852   1.536       .  S
C1851      C1981   1.488       .  S
C1852      C1856   1.543       .  S
C1852      C1854   1.543       .  S
C1852      H1858   1.110       .  S
C1853      H1859   1.086       .  S
C1853      C1854   1.369       .  D
C1854      C2041   1.478       .  S
C1855      H1860   1.079       .  S
C1855      C1856   1.365       .  D
C1856      C1993   1.492       .  S
C1861      C1862   1.547       .  S
C1861      C1867   1.531       .  S
C1861      C1865   1.546       .  S
C1861      C2080   1.539       .  S
C1862      H1869   1.082       .  S
C1862      C1863   1.371       .  D
C1863      C1864   1.544       .  S
C1863      C1996   1.488       .  S
C1864      C1868   1.533       .  S
C1864      C1866   1.540       .  S
C1864      H1870   1.110       .  S
C1865      H1871   1.085       .  S
C1865      C1866   1.368       .  D
C1866      C2020   1.483       .  S
C1867      H1872   1.088       .  S
C1867      C1868   1.353       .  D
C1868      C1969   1.481       .  S
C1873      C1874   1.532       .  S
C1873      C1879   1.546       .  S
C1873      C1877   1.550       .  S
C1873      C2116   1.546       .  S
C1874      H1881   1.088       .  S
C1874      C1875   1.357       .  D
C1875      C1876   1.529       .  S
C1875      C2032   1.481       .  S
C1876      C1880   1.535       .  S
C1876      C1878   1.536       .  S
C1876      H1882   1.111       .  S
C1877      H1883   1.084       .  S
C1877      C1878   1.371       .  D
C1878      C1945   1.482       .  S
C1879      H1884   1.083       .  S
C1879      C1880   1.368       .  D
C1880      C1957   1.481       .  S
C1885      C1886   1.542       .  S
C1885      C1891   1.534       .  S
C1885      C1889   1.549       .  S
C1885      C2128   1.543       .  S
C1886      H1893   1.083       .  S
C1886      C1887   1.364       .  D
C1887      C1888   1.537       .  S
C1887      C1960   1.480       .  S
C1888      C1892   1.534       .  S
C1888      C1890   1.540       .  S
C1888      H1894   1.111       .  S
C1889      H1895   1.085       .  S
C1889      C1890   1.372       .  D
C1890      C1933   1.486       .  S
C1891      H1896   1.087       .  S
C1891      C1892   1.357       .  D
C1892      C2008   1.486       .  S
C1897      C1898   1.540       .  S
C1897      C1903   1.544       .  S
C1897      C1901   1.543       .  S
C1897      C2089   1.540       .  S
C1898      H1905   1.080       .  S
C1898      C1899   1.363       .  D
C1899      C1900   1.533       .  S
C1899      C1921   1.476       .  S
C1900      C1904   1.536       .  S
C1900      C1902   1.537       .  S
C1900      H1906   1.111       .  S
C1901      H1907   1.086       .  S
C1901      C1902   1.370       .  D
C1902      C1948   1.481       .  S
C1903      H1908   1.086       .  S
C1903      C1904   1.362       .  D
C1904      C1984   1.487       .  S
C1909      C1910   1.535       .  S
C1909      C1915   1.552       .  S
C1909      C1913   1.556       .  S
C1909      C2104   1.545       .  S
C1910      H1917   1.087       .  S
C1910      C1911   1.356       .  D
C1911      C1912   1.527       .  S
C1911      C1972   1.474       .  S
C1912      C1916   1.526       .  S
C1912      C1914   1.535       .  S
C1912      H1918   1.112       .  S
C1913      H1919   1.084       .  S
C1913      C1914   1.374       .  D
C1914      C1936   1.488       .  S
C1915      H1920   1.080       .  S
C1915      C1916   1.365       .  D
C1916      C1924   1.477       .  S
C1921      C1922   1.399       .  A
C1921      C1926   1.414       .  A
C1922      C1923   1.396       .  A
C1922      H1931   1.081       .  S
C1923      C1924   1.410       .  A
C1923      S1927   1.797       .  S
C1924      C1925   1.402       .  A
C1925      C1926   1.399       .  A
C1925      H1932   1.084       .  S
C1926      S1928   1.804       .  S
S1927      H1930   1.405       .  S
S1928      H1929   1.406       .  S
C1933      C1934   1.406       .  A
C1933      C1938   1.408       .  A
C1934      C1935   1.410   1_565  A
C1934      H1943   1.082       .  S
C1935      C1936   1.417       .  A
C1935      S1939   1.805       .  S
C1936      C1937   1.401       .  A
C1937      C1938   1.390   1_545  A
C1937      H1944   1.077       .  S
C1938      S1940   1.804       .  S
S1939      H1942   1.397       .  S
S1940      H1941   1.407   1_565  S
C1945      C1946   1.405       .  A
C1945      C1950   1.413       .  A
C1946      C1947   1.407   1_565  A
C1946      H1955   1.084       .  S
C1947      C1948   1.413       .  A
C1947      S1951   1.802       .  S
C1948      C1949   1.397       .  A
C1949      C1950   1.394   1_545  A
C1949      H1956   1.081       .  S
C1950      S1952   1.799       .  S
S1951      H1954   1.405       .  S
S1952      H1953   1.398       .  S
C1957      C1958   1.404       .  A
C1957      C1962   1.413       .  A
C1958      C1959   1.401       .  A
C1958      H1967   1.084       .  S
C1959      C1960   1.410       .  A
C1959      S1963   1.798       .  S
C1960      C1961   1.403       .  A
C1961      C1962   1.398       .  A
C1961      H1968   1.083       .  S
C1962      S1964   1.810       .  S
S1963      H1966   1.405       .  S
S1964      H1965   1.407       .  S
C1969      C1970   1.403       .  A
C1969      C1974   1.407       .  A
C1970      C1971   1.390       .  A
C1970      H1979   1.085       .  S
C1971      C1972   1.413       .  A
C1971      S1975   1.808       .  S
C1972      C1973   1.402       .  A
C1973      C1974   1.402       .  A
C1973      H1980   1.084       .  S
C1974      S1976   1.796       .  S
S1975      H1978   1.400       .  S
S1976      H1977   1.406       .  S
C1981      C1982   1.403       .  A
C1981      C1986   1.409       .  A
C1982      C1983   1.396       .  A
C1982      H1991   1.084       .  S
C1983      C1984   1.416       .  A
C1983      S1987   1.806       .  S
C1984      C1985   1.404       .  A
C1985      C1986   1.405       .  A
C1985      H1992   1.083       .  S
C1986      S1988   1.795       .  S
S1987      H1990   1.399       .  S
S1988      H1989   1.407       .  S
C1993      C1994   1.403       .  A
C1993      C1998   1.420       .  A
C1994      C1995   1.401       .  A
C1994      H2003   1.081       .  S
C1995      C1996   1.411       .  A
C1995      S1999   1.793       .  S
C1996      C1997   1.401       .  A
C1997      C1998   1.397       .  A
C1997      H2004   1.084       .  S
C1998      S2000   1.805       .  S
S1999      H2002   1.405       .  S
S2000      H2001   1.407       .  S
C2005      C2006   1.403       .  A
C2005      C2010   1.411       .  A
C2006      C2007   1.391       .  A
C2006      H2015   1.085       .  S
C2007      C2008   1.417       .  A
C2007      S2011   1.808       .  S
C2008      C2009   1.406       .  A
C2009      C2010   1.406       .  A
C2009      H2016   1.083       .  S
C2010      S2012   1.801       .  S
S2011      H2014   1.402       .  S
S2012      H2013   1.408       .  S
C2017      C2018   1.400       .  A
C2017      C2022   1.416       .  A
C2018      C2019   1.393   1_565  A
C2018      H2027   1.084       .  S
C2019      C2020   1.410       .  A
C2019      S2023   1.796       .  S
C2020      C2021   1.403       .  A
C2021      C2022   1.405   1_545  A
C2021      H2028   1.084       .  S
C2022      S2024   1.805       .  S
S2023      H2026   1.406       .  S
S2024      H2025   1.399       .  S
C2029      C2030   1.403       .  A
C2029      C2034   1.415       .  A
C2030      C2031   1.401       .  A
C2030      H2039   1.082       .  S
C2031      C2032   1.411       .  A
C2031      S2035   1.803       .  S
C2032      C2033   1.402       .  A
C2033      C2034   1.390       .  A
C2033      H2040   1.083       .  S
C2034      S2036   1.805       .  S
S2035      H2038   1.403       .  S
S2036      H2037   1.393       .  S
C2041      C2042   1.399       .  A
C2041      C2046   1.410       .  A
C2042      C2043   1.398   1_545  A
C2042      H2051   1.085       .  S
C2043      C2044   1.413       .  A
C2043      S2047   1.793       .  S
C2044      C2045   1.403       .  A
C2045      C2046   1.402   1_565  A
C2045      H2052   1.083       .  S
C2046      S2048   1.801       .  S
S2047      H2050   1.402       .  S
S2048      H2049   1.406       .  S
C2053      C2054   1.401       .  A
C2053      C2058   1.408       .  A
C2054      C2055   1.394       .  A
C2054      H2063   1.084       .  S
C2055      C2056   1.414       .  A
C2055      S2059   1.805       .  S
C2056      C2057   1.401       .  A
C2057      C2058   1.399       .  A
C2057      H2064   1.081       .  S
C2058      S2060   1.796       .  S
S2059      H2062   1.404       .  S
S2060      H2061   1.404       .  S
C2065      C2066   1.403       .  A
C2065      C2070   1.408       .  A
C2066      C2067   1.401       .  A
C2066      H2075   1.083       .  S
C2067      C2068   1.423       .  A
C2067      S2071   1.810       .  S
C2068      C2069   1.414       .  A
C2069      C2070   1.399       .  A
C2069      H2076   1.077       .  S
C2070      S2072   1.802       .  S
S2071      H2074   1.407       .  S
S2072      H2073   1.407       .  S
C2077      C2078   1.402       .  A
C2077      C2082   1.411       .  A
C2078      C2079   1.399       .  A
C2078      H2087   1.082       .  S
C2079      C2080   1.424       .  A
C2079      S2083   1.812       .  S
C2080      C2081   1.413       .  A
C2081      C2082   1.408       .  A
C2081      H2088   1.075       .  S
C2082      S2084   1.808       .  S
S2083      H2086   1.407       .  S
S2084      H2085   1.406       .  S
C2089      C2090   1.408       .  A
C2089      C2094   1.420       .  A
C2090      C2091   1.398       .  A
C2090      H2099   1.084       .  S
C2091      C2092   1.418       .  A
C2091      S2095   1.803       .  S
C2092      C2093   1.402       .  A
C2093      C2094   1.402       .  A
C2093      H2100   1.084       .  S
C2094      S2096   1.803       .  S
S2095      H2098   1.408       .  S
S2096      H2097   1.407       .  S
C2101      C2102   1.401       .  A
C2101      C2106   1.408       .  A
C2102      C2103   1.402       .  A
C2102      H2111   1.082       .  S
C2103      C2104   1.426       .  A
C2103      S2107   1.809       .  S
C2104      C2105   1.417       .  A
C2105      C2106   1.407       .  A
C2105      H2112   1.069       .  S
C2106      S2108   1.809       .  S
S2107      H2110   1.407       .  S
S2108      H2109   1.406       .  S
C2113      C2114   1.400       .  A
C2113      C2118   1.408       .  A
C2114      C2115   1.402       .  A
C2114      H2123   1.082       .  S
C2115      C2116   1.427       .  A
C2115      S2119   1.808       .  S
C2116      C2117   1.418       .  A
C2117      C2118   1.407       .  A
C2117      H2124   1.075       .  S
C2118      S2120   1.809       .  S
S2119      H2122   1.406       .  S
S2120      H2121   1.406       .  S
C2125      C2126   1.403       .  A
C2125      C2130   1.408       .  A
C2126      C2127   1.404       .  A
C2126      H2135   1.083       .  S
C2127      C2128   1.424       .  A
C2127      S2131   1.809       .  S
C2128      C2129   1.416       .  A
C2129      C2130   1.400       .  A
C2129      H2136   1.078       .  S
C2130      S2132   1.802       .  S
S2131      H2134   1.406       .  S
S2132      H2133   1.407       .  S
C2137      C2138   1.418       .  A
C2137      C2142   1.420       .  A
C2138      C2139   1.405       .  A
C2138      H2147   1.071       .  S
C2139      C2140   1.407       .  A
C2139      S2143   1.809       .  S
C2140      C2141   1.403       .  A
C2141      C2142   1.399       .  A
C2141      H2148   1.082       .  S
C2142      S2144   1.808       .  S
S2143      H2146   1.407       .  S
S2144      H2145   1.406       .  S
C2149      C2150   1.413       .  A
C2149      C2154   1.418       .  A
C2150      C2151   1.399       .  A
C2150      H2159   1.083       .  S
C2151      C2152   1.412       .  A
C2151      S2155   1.810       .  S
C2152      C2153   1.407       .  A
C2153      C2154   1.405       .  A
C2153      H2160   1.084       .  S
C2154      S2156   1.797       .  S
S2155      H2158   1.406       .  S
S2156      H2157   1.409       .  S
C2161      C2162   1.402       .  A
C2161      C2166   1.408       .  A
C2162      C2163   1.403       .  A
C2162      H2171   1.083       .  S
C2163      C2164   1.423       .  A
C2163      S2167   1.807       .  S
C2164      C2165   1.416       .  A
C2165      C2166   1.402       .  A
C2165      H2172   1.075       .  S
C2166      S2168   1.802       .  S
S2167      H2170   1.407       .  S
S2168      H2169   1.407       .  S
C2173      C2174   1.412       .  A
C2173      C2178   1.422       .  A
C2174      C2175   1.393       .  A
C2174      H2183   1.084       .  S
C2175      C2176   1.409       .  A
C2175      S2179   1.803       .  S
C2176      C2177   1.405       .  A
C2177      C2178   1.405       .  A
C2177      H2184   1.084       .  S
C2178      S2180   1.801       .  S
S2179      H2182   1.408       .  S
S2180      H2181   1.407       .  S
C2185      C2186   1.402       .  A
C2185      C2190   1.413       .  A
C2186      C2187   1.401       .  A
C2186      H2195   1.083       .  S
C2187      C2188   1.414       .  A
C2187      S2191   1.795       .  S
C2188      C2189   1.407       .  A
C2189      C2190   1.393       .  A
C2189      H2196   1.083       .  S
C2190      S2192   1.805       .  S
S2191      H2194   1.406       .  S
S2192      H2193   1.406       .  S
C2197      C2198   1.412       .  A
C2197      C2202   1.422       .  A
C2198      C2199   1.395       .  A
C2198      H2207   1.084       .  S
C2199      C2200   1.410       .  A
C2199      S2203   1.804       .  S
C2200      C2201   1.404       .  A
C2201      C2202   1.405       .  A
C2201      H2208   1.084       .  S
C2202      S2204   1.801       .  S
S2203      H2206   1.408       .  S
S2204      H2205   1.408       .  S
C2209      C2210   1.400       .  A
C2209      C2214   1.412       .  A
C2210      C2211   1.400   1_655  A
C2210      H2219   1.084       .  S
C2211      C2212   1.413       .  A
C2211      S2215   1.794       .  S
C2212      C2213   1.401       .  A
C2213      C2214   1.400   1_455  A
C2213      H2220   1.084       .  S
C2214      S2216   1.800       .  S
S2215      H2218   1.403       .  S
S2216      H2217   1.406       .  S
C2221      C2222   1.409       .  A
C2221      C2226   1.427       .  A
C2222      C2223   1.401       .  A
C2222      H2231   1.077       .  S
C2223      C2224   1.413       .  A
C2223      S2227   1.802       .  S
C2224      C2225   1.399       .  A
C2225      C2226   1.398       .  A
C2225      H2232   1.082       .  S
C2226      S2228   1.815       .  S
S2227      H2230   1.407       .  S
S2228      H2229   1.407       .  S
C2233      C2234   1.401       .  A
C2233      C2238   1.408       .  A
C2234      C2235   1.400   1_655  A
C2234      H2243   1.083       .  S
C2235      C2236   1.416       .  A
C2235      S2239   1.805       .  S
C2236      C2237   1.399       .  A
C2237      C2238   1.395   1_455  A
C2237      H2244   1.078       .  S
C2238      S2240   1.803       .  S
S2239      H2242   1.400       .  S
S2240      H2241   1.406       .  S
C2245      C2246   1.403       .  A
C2245      C2250   1.415       .  A
C2246      C2247   1.396       .  A
C2246      H2255   1.075       .  S
C2247      C2248   1.424       .  A
C2247      S2251   1.807       .  S
C2248      C2249   1.414       .  A
C2249      C2250   1.401       .  A
C2249      H2256   1.082       .  S
C2250      S2252   1.804       .  S
S2251      H2254   1.407       .  S
S2252      H2253   1.404       .  S
C2257      C2258   1.411       .  A
C2257      C2262   1.422       .  A
C2258      C2259   1.394       .  A
C2258      H2267   1.085       .  S
C2259      C2260   1.414       .  A
C2259      S2263   1.804       .  S
C2260      C2261   1.403       .  A
C2261      C2262   1.405       .  A
C2261      H2268   1.084       .  S
C2262      S2264   1.798       .  S
S2263      H2266   1.408       .  S
S2264      H2265   1.408       .  S
C2269      C2270   1.404       .  A
C2269      C2274   1.412       .  A
C2270      C2271   1.405       .  A
C2270      H2279   1.083       .  S
C2271      C2272   1.413       .  A
C2271      S2275   1.805       .  S
C2272      C2273   1.401       .  A
C2273      C2274   1.390       .  A
C2273      H2280   1.084       .  S
C2274      S2276   1.804       .  S
S2275      H2278   1.407       .  S
S2276      H2277   1.398       .  S
C2281      C2282   1.410       .  A
C2281      C2286   1.422       .  A
C2282      C2283   1.397       .  A
C2282      H2291   1.084       .  S
C2283      C2284   1.414       .  A
C2283      S2287   1.804       .  S
C2284      C2285   1.402       .  A
C2285      C2286   1.406       .  A
C2285      H2292   1.084       .  S
C2286      S2288   1.803       .  S
S2287      H2290   1.407       .  S
S2288      H2289   1.407       .  S
C2293      C2294   1.401       .  A
C2293      C2298   1.411       .  A
C2294      C2295   1.392       .  A
C2294      H2303   1.083       .  S
C2295      C2296   1.409       .  A
C2295      S2299   1.798       .  S
C2296      C2297   1.404       .  A
C2297      C2298   1.403       .  A
C2297      H2304   1.083       .  S
C2298      S2300   1.797       .  S
S2299      H2302   1.400       .  S
S2300      H2301   1.405       .  S
C2305      C2306   1.408       .  A
C2305      C2310   1.414       .  A
C2306      C2307   1.401       .  A
C2306      H2315   1.083       .  S
C2307      C2308   1.414       .  A
C2307      S2311   1.804       .  S
C2308      C2309   1.404       .  A
C2309      C2310   1.403       .  A
C2309      H2316   1.079       .  S
C2310      S2312   1.792       .  S
S2311      H2314   1.406       .  S
S2312      H2313   1.406       .  S
C2317      C2318   1.395       .  A
C2317      C2322   1.416       .  A
C2318      C2319   1.394       .  A
C2318      H2327   1.083       .  S
C2319      C2320   1.430       .  A
C2319      S2323   1.817       .  S
C2320      C2321   1.408       .  A
C2321      C2322   1.408       .  A
C2321      H2328   1.080       .  S
C2322      S2324   1.801       .  S
S2323      H2326   1.407       .  S
S2324      H2325   1.407       .  S
C2329      C2330   1.399       .  A
C2329      C2334   1.411       .  A
C2330      C2331   1.403       .  A
C2330      H2339   1.075       .  S
C2331      C2332   1.413       .  A
C2331      S2335   1.804       .  S
C2332      C2333   1.400       .  A
C2333      C2334   1.399       .  A
C2333      H2340   1.084       .  S
C2334      S2336   1.794       .  S
S2335      H2338   1.406       .  S
S2336      H2337   1.403       .  S
C2341      C2342   1.404       .  A
C2341      C2346   1.413       .  A
C2342      C2343   1.403   1_655  A
C2342      H2351   1.084       .  S
C2343      C2344   1.414       .  A
C2343      S2347   1.799       .  S
C2344      C2345   1.395       .  A
C2345      C2346   1.398   1_455  A
C2345      H2352   1.081       .  S
C2346      S2348   1.799       .  S
S2347      H2350   1.401       .  S
S2348      H2349   1.407   1_655  S
C2353      C2354   1.408       .  A
C2353      C2358   1.428       .  A
C2354      C2355   1.403       .  A
C2354      H2363   1.078       .  S
C2355      C2356   1.415       .  A
C2355      S2359   1.802       .  S
C2356      C2357   1.394       .  A
C2357      C2358   1.394       .  A
C2357      H2364   1.083       .  S
C2358      S2360   1.809       .  S
S2359      H2362   1.407       .  S
S2360      H2361   1.407       .  S
C2365      C2366   1.404       .  A
C2365      C2370   1.409       .  A
C2366      C2367   1.392       .  A
C2366      H2375   1.084       .  S
C2367      C2368   1.411       .  A
C2367      S2371   1.803       .  S
C2368      C2369   1.401       .  A
C2369      C2370   1.399       .  A
C2369      H2376   1.076       .  S
C2370      S2372   1.802       .  S
S2371      H2374   1.403       .  S
S2372      H2373   1.407       .  S
C2377      C2378   1.402       .  A
C2377      C2382   1.409       .  A
C2378      C2379   1.402   1_655  A
C2378      H2387   1.084       .  S
C2379      C2380   1.417       .  A
C2379      S2383   1.806       .  S
C2380      C2381   1.399       .  A
C2381      C2382   1.397   1_455  A
C2381      H2388   1.079       .  S
C2382      S2384   1.800       .  S
S2383      H2386   1.397       .  S
S2384      H2385   1.407       .  S
C2389      C2390   1.399       .  A
C2389      C2394   1.406       .  A
C2390      C2391   1.397       .  A
C2390      H2399   1.082       .  S
C2391      C2392   1.412       .  A
C2391      S2395   1.804       .  S
C2392      C2393   1.398       .  A
C2393      C2394   1.391       .  A
C2393      H2400   1.080       .  S
C2394      S2396   1.806       .  S
S2395      H2398   1.403       .  S
S2396      H2397   1.407       .  S
C2401      C2402   1.414       .  A
C2401      C2406   1.424       .  A
C2402      C2403   1.402       .  A
C2402      H2411   1.075       .  S
C2403      C2404   1.409       .  A
C2403      S2407   1.802       .  S
C2404      C2405   1.403       .  A
C2405      C2406   1.403       .  A
C2405      H2412   1.082       .  S
C2406      S2408   1.812       .  S
S2407      H2410   1.407       .  S
S2408      H2409   1.406       .  S
C2413      C2414   1.402       .  A
C2413      C2418   1.409       .  A
C2414      C2415   1.403       .  A
C2414      H2423   1.083       .  S
C2415      C2416   1.425       .  A
C2415      S2419   1.812       .  S
C2416      C2417   1.414       .  A
C2417      C2418   1.404       .  A
C2417      H2424   1.076       .  S
C2418      S2420   1.802       .  S
S2419      H2422   1.407       .  S
S2420      H2421   1.407       .  S
C2425      C2426   1.403       .  A
C2425      C2430   1.412       .  A
C2426      C2427   1.393       .  A
C2426      H2435   1.079       .  S
C2427      C2428   1.416       .  A
C2427      S2431   1.807       .  S
C2428      C2429   1.409       .  A
C2429      C2430   1.400       .  A
C2429      H2436   1.083       .  S
C2430      S2432   1.803       .  S
S2431      H2434   1.406       .  S
S2432      H2433   1.403       .  S
C2437      C2438   1.416       .  A
C2437      C2442   1.425       .  A
C2438      C2439   1.406       .  A
C2438      H2447   1.073       .  S
C2439      C2440   1.409       .  A
C2439      S2443   1.809       .  S
C2440      C2441   1.402       .  A
C2441      C2442   1.404       .  A
C2441      H2448   1.083       .  S
C2442      S2444   1.807       .  S
S2443      H2446   1.406       .  S
S2444      H2445   1.407       .  S
C2449      C2450   1.402       .  A
C2449      C2454   1.412       .  A
C2450      C2451   1.402       .  A
C2450      H2459   1.084       .  S
C2451      C2452   1.413       .  A
C2451      S2455   1.803       .  S
C2452      C2453   1.400       .  A
C2453      C2454   1.400       .  A
C2453      H2460   1.084       .  S
C2454      S2456   1.793       .  S
S2455      H2458   1.407       .  S
S2456      H2457   1.405       .  S
C2461      C2462   1.402       .  A
C2461      C2466   1.408       .  A
C2462      C2463   1.400       .  A
C2462      H2471   1.083       .  S
C2463      C2464   1.422       .  A
C2463      S2467   1.809       .  S
C2464      C2465   1.414       .  A
C2465      C2466   1.400       .  A
C2465      H2472   1.075       .  S
C2466      S2468   1.802       .  S
S2467      H2470   1.407       .  S
S2468      H2469   1.407       .  S
C2473      C2474   1.398       .  A
C2473      C2478   1.412       .  A
C2474      C2475   1.397       .  A
C2474      H2483   1.083       .  S
C2475      C2476   1.410       .  A
C2475      S2479   1.800       .  S
C2476      C2477   1.400       .  A
C2477      C2478   1.399       .  A
C2477      H2484   1.084       .  S
C2478      S2480   1.793       .  S
S2479      H2482   1.407       .  S
S2480      H2481   1.404       .  S
C2485      C2486   1.404       .  A
C2485      C2490   1.415       .  A
C2486      C2487   1.408       .  A
C2486      H2495   1.081       .  S
C2487      C2488   1.418       .  A
C2487      S2491   1.802       .  S
C2488      C2489   1.409       .  A
C2489      C2490   1.396       .  A
C2489      H2496   1.083       .  S
C2490      S2492   1.808       .  S
S2491      H2494   1.407       .  S
S2492      H2493   1.404       .  S
C2497      C2498   1.410       .  A
C2497      C2502   1.429       .  A
C2498      C2499   1.403       .  A
C2498      H2507   1.078       .  S
C2499      C2500   1.415       .  A
C2499      S2503   1.802       .  S
C2500      C2501   1.398       .  A
C2501      C2502   1.399       .  A
C2501      H2508   1.082       .  S
C2502      S2504   1.815       .  S
S2503      H2506   1.407       .  S
S2504      H2505   1.406       .  S
C2509      C2510   1.402       .  A
C2509      C2514   1.411       .  A
C2510      C2511   1.393       .  A
C2510      H2519   1.083       .  S
C2511      C2512   1.409       .  A
C2511      S2515   1.810       .  S
C2512      C2513   1.401       .  A
C2513      C2514   1.402       .  A
C2513      H2520   1.084       .  S
C2514      S2516   1.798       .  S
S2515      H2518   1.407       .  S
S2516      H2517   1.402       .  S
C2521      C2522   1.398       .  A
C2521      C2526   1.414       .  A
C2522      C2523   1.400       .  A
C2522      H2531   1.082       .  S
C2523      C2524   1.429       .  A
C2523      S2527   1.815       .  S
C2524      C2525   1.409       .  A
C2525      C2526   1.404       .  A
C2525      H2532   1.078       .  S
C2526      S2528   1.802       .  S
S2527      H2530   1.406       .  S
S2528      H2529   1.408       .  S
C2533      C2534   1.402       .  A
C2533      C2538   1.413       .  A
C2534      C2535   1.393       .  A
C2534      H2543   1.083       .  S
C2535      C2536   1.410       .  A
C2535      S2539   1.810       .  S
C2536      C2537   1.402       .  A
C2537      C2538   1.404       .  A
C2537      H2544   1.084       .  S
C2538      S2540   1.798       .  S
S2539      H2542   1.406       .  S
S2540      H2541   1.401       .  S
C2545      C2546   1.408       .  A
C2545      C2550   1.416       .  A
C2546      C2547   1.400       .  A
C2546      H2555   1.084       .  S
C2547      C2548   1.411       .  A
C2547      S2551   1.803       .  S
C2548      C2549   1.404       .  A
C2549      C2550   1.402       .  A
C2549      H2556   1.080       .  S
C2550      S2552   1.804       .  S
S2551      H2554   1.407       .  S
S2552      H2553   1.407       .  S
C2557      C2558   1.415       .  A
C2557      C2562   1.422       .  A
C2558      C2559   1.393       .  A
C2558      H2567   1.085       .  S
C2559      C2560   1.407       .  A
C2559      S2563   1.803       .  S
C2560      C2561   1.406       .  A
C2561      C2562   1.407       .  A
C2561      H2568   1.084       .  S
C2562      S2564   1.796       .  S
S2563      H2566   1.408       .  S
S2564      H2565   1.408       .  S
C2569      C2570   1.400       .  A
C2569      C2574   1.408       .  A
C2570      C2571   1.394       .  A
C2570      H2579   1.083       .  S
C2571      C2572   1.409       .  A
C2571      S2575   1.795       .  S
C2572      C2573   1.403       .  A
C2573      C2574   1.397       .  A
C2573      H2580   1.083       .  S
C2574      S2576   1.800       .  S
S2575      H2578   1.404       .  S
S2576      H2577   1.404       .  S
C2581      C2582   1.402       .  A
C2581      C2586   1.411       .  A
C2582      C2583   1.402       .  A
C2582      H2591   1.084       .  S
C2583      C2584   1.413       .  A
C2583      S2587   1.800       .  S
C2584      C2585   1.400       .  A
C2585      C2586   1.395       .  A
C2585      H2592   1.085       .  S
C2586      S2588   1.802       .  S
S2587      H2590   1.403       .  S
S2588      H2589   1.407       .  S
C2593      C2594   1.416       .  A
C2593      C2598   1.423       .  A
C2594      C2595   1.407       .  A
C2594      H2603   1.073       .  S
C2595      C2596   1.408       .  A
C2595      S2599   1.808       .  S
C2596      C2597   1.400       .  A
C2597      C2598   1.399       .  A
C2597      H2604   1.082       .  S
C2598      S2600   1.813       .  S
S2599      H2602   1.407       .  S
S2600      H2601   1.406       .  S
C2605      C2606   1.400       .  A
C2605      C2610   1.413       .  A
C2606      C2607   1.398       .  A
C2606      H2615   1.085       .  S
C2607      C2608   1.411       .  A
C2607      S2611   1.796       .  S
C2608      C2609   1.402       .  A
C2609      C2610   1.399       .  A
C2609      H2616   1.084       .  S
C2610      S2612   1.802       .  S
S2611      H2614   1.403       .  S
S2612      H2613   1.403       .  S
C2617      C2618   1.400       .  A
C2617      C2622   1.418       .  A
C2618      C2619   1.393       .  A
C2618      H2627   1.084       .  S
C2619      C2620   1.409       .  A
C2619      S2623   1.799       .  S
C2620      C2621   1.403       .  A
C2621      C2622   1.406       .  A
C2621      H2628   1.084       .  S
C2622      S2624   1.807       .  S
S2623      H2626   1.406       .  S
S2624      H2625   1.399       .  S
C2629      C2630   1.402       .  A
C2629      C2634   1.417       .  A
C2630      C2631   1.397       .  A
C2630      H2639   1.077       .  S
C2631      C2632   1.424       .  A
C2631      S2635   1.808       .  S
C2632      C2633   1.409       .  A
C2633      C2634   1.399       .  A
C2633      H2640   1.083       .  S
C2634      S2636   1.804       .  S
S2635      H2638   1.407       .  S
S2636      H2637   1.403       .  S
