geometry optimzed in LAMMPS
_audit_creation_date              2020-11-30 
_audit_creation_method            'lammps2cif' 
_symmetry_space_group_name_H-M    'P1' 
_symmetry_Int_Tables_number       1 
_symmetry_cell_setting            triclinic 
loop_ 
_symmetry_equiv_pos_as_xyz 
  x,y,z 
_cell_length_a                    45.03131997 
_cell_length_b                    44.71709049584862 
_cell_length_c                    44.75626902295557 
_cell_angle_alpha                 90.32963088974103 
_cell_angle_beta                  90.44586561671903 
_cell_angle_gamma                 89.7332251629871 
loop_ 
_atom_site_label 
_atom_site_type_symbol 
_atom_site_fract_x 
_atom_site_fract_y 
_atom_site_fract_z 
_atom_site_charge 
C1          C  0.25406595  0.99198613  0.64298020     0.87400
C2          C  0.25460860  0.96625073  0.61972320    -0.52800
C3          C  0.27949567  0.96560595  0.60226749     0.10300
C4          C  0.30127919  0.99089667  0.60943311     0.21300
C5          C  0.28332211  0.98814835  0.66046121    -0.53600
C6          C  0.30812005  0.98724245  0.64296284     0.10400
C7          C  0.25830499  0.02053051  0.62436313    -0.53100
C8          C  0.28287937  0.01969104  0.60634333     0.11000
H9          H  0.23729444  0.94953152  0.61792731     0.15500
H10         H  0.32139438  0.99070184  0.59531486     0.01300
H11         H  0.28390305  0.98432480  0.68437900     0.15800
H12         H  0.24237956  0.03883140  0.62415105     0.15600
C13         C  0.35999151  0.72701560  0.51522025     0.87400
C14         C  0.38018108  0.73251012  0.54280237    -0.52800
C15         C  0.39557041  0.75914344  0.54227666     0.10300
C16         C  0.38933740  0.77741026  0.51371083     0.21300
C17         C  0.34028835  0.75482107  0.51366521    -0.53600
C18         C  0.35516039  0.78135653  0.51382035     0.10400
C19         C  0.38070741  0.72961352  0.48843275    -0.53100
C20         C  0.39646964  0.75563796  0.48755442     0.11000
H21         H  0.38131671  0.71703096  0.56136104     0.15500
H22         H  0.40136550  0.79889959  0.51241283     0.01300
H23         H  0.31625696  0.75351610  0.51516551     0.15800
H24         H  0.38343727  0.71186810  0.47200402     0.15600
C25         C  0.50468363  0.85174059  0.76441091     0.87400
C26         C  0.47771567  0.87267163  0.75939547    -0.52800
C27         C  0.47921340  0.88912185  0.73379428     0.10300
C28         C  0.50735408  0.88322812  0.71565199     0.21300
C29         C  0.50673308  0.83305684  0.73575002    -0.53600
C30         C  0.50673278  0.84921624  0.70990298     0.10400
C31         C  0.53170973  0.87269550  0.76353522    -0.53100
C32         C  0.53295000  0.88953051  0.73798576     0.11000
H33         H  0.45880788  0.87373640  0.77427244     0.15500
H34         H  0.50875581  0.89668389  0.69497702     0.01300
H35         H  0.50529586  0.80884953  0.73615601     0.15800
H36         H  0.54757866  0.87484624  0.78180088     0.15600
C37         C  0.99148028  0.63385333  0.23740105     0.87400
C38         C  0.96400608  0.61366697  0.24176233    -0.52800
C39         C  0.96524858  0.59668393  0.26722246     0.10300
C40         C  0.99356908  0.60162621  0.28597381     0.21300
C41         C  0.99322749  0.65226594  0.26622092    -0.53600
C42         C  0.99348782  0.63577367  0.29183144     0.10400
C43         C  0.01813171  0.61244650  0.23887596    -0.53100
C44         C  0.01924601  0.59518385  0.26405689     0.11000
H45         H  0.94510275  0.61328694  0.22656418     0.15500
H46         H  0.99436430  0.58806033  0.30667328     0.01300
H47         H  0.99176328  0.67652719  0.26630184     0.15800
H48         H  0.03417306  0.61045335  0.22096972     0.15600
C49         C  0.73762334  0.49826910  0.35478620     0.87400
C50         C  0.74299701  0.52459682  0.37674958    -0.52800
C51         C  0.76905047  0.52256242  0.39285347     0.10300
C52         C  0.78694739  0.49396541  0.38571089     0.21300
C53         C  0.76580929  0.49693768  0.33581426    -0.53600
C54         C  0.79187397  0.49597925  0.35163104     0.10400
C55         C  0.73928267  0.47021558  0.37440375    -0.53100
C56         C  0.76493528  0.46776772  0.39094218     0.11000
H57         H  0.72817480  0.54375335  0.37825746     0.15500
H58         H  0.80793699  0.49171154  0.39868505     0.01300
H59         H  0.76527174  0.50133502  0.31194743     0.15800
H60         H  0.72139224  0.45409082  0.37568349     0.15600
C61         C  0.85687998  0.74813882  0.49434450     0.87400
C62         C  0.87680487  0.74589089  0.46677899    -0.52800
C63         C  0.89619791  0.72224689  0.46700349     0.10300
C64         C  0.89414679  0.70340012  0.49565245     0.21300
C65         C  0.84182803  0.71749569  0.49610698    -0.53600
C66         C  0.86099887  0.69361123  0.49582941     0.10400
C67         C  0.87820345  0.74932135  0.52099265    -0.53100
C68         C  0.89833131  0.72642134  0.52170572     0.11000
H69         H  0.87464840  0.76117052  0.44811127     0.15500
H70         H  0.90994562  0.68435178  0.49661669     0.01300
H71         H  0.81794138  0.71516120  0.49425224     0.15800
H72         H  0.87837643  0.76767069  0.53700381     0.15600
C73         C  0.49062108  0.39770691  0.76714736     0.87400
C74         C  0.49551821  0.37863529  0.79548249    -0.52800
C75         C  0.52044825  0.36083241  0.79476517     0.10300
C76         C  0.53801394  0.36384285  0.76555593     0.21300
C77         C  0.51972432  0.41516283  0.76398043    -0.53600
C78         C  0.54463364  0.39756660  0.76347794     0.10400
C79         C  0.49066922  0.37517486  0.74128636    -0.53100
C80         C  0.51533703  0.35731263  0.74033737     0.11000
H81         H  0.48088289  0.37965594  0.81461490     0.15500
H82         H  0.55840236  0.34986468  0.76446109     0.01300
H83         H  0.52073502  0.43939743  0.76550652     0.15800
H84         H  0.47262982  0.37350716  0.72511789     0.15600
C85         C  0.74615580  0.50897896  0.89736707     0.87400
C86         C  0.72078859  0.50758201  0.87424479    -0.52800
C87         C  0.72203227  0.48334572  0.85550206     0.10300
C88         C  0.74895202  0.46286978  0.86147514     0.21300
C89         C  0.74502628  0.47871804  0.91323975    -0.53600
C90         C  0.74522224  0.45439155  0.89479857     0.10400
C91         C  0.77471181  0.50789944  0.87905235    -0.53100
C92         C  0.77630067  0.48406645  0.85972040     0.11000
H93         H  0.70160803  0.52239021  0.87510089     0.15500
H94         H  0.75000764  0.44329562  0.84612187     0.01300
H95         H  0.74109839  0.47667429  0.93705485     0.15800
H96         H  0.79149107  0.52523770  0.88027364     0.15600
C97         C  0.61250413  0.25086002  0.01477087     0.87400
C98         C  0.62924835  0.28055821  0.01032251    -0.52800
C99         C  0.64611778  0.28132849  0.98487144     0.10300
C100        C  0.64470450  0.25199483  0.96661269     0.21300
C101        C  0.59465917  0.24667364  0.98581913    -0.53600
C102        C  0.61104484  0.24852374  0.96030778     0.10400
C103        C  0.63645552  0.22657993  0.01393032    -0.53100
C104        C  0.65358576  0.22696424  0.98898715     0.11000
H105        H  0.62688050  0.29958014  0.02531338     0.15500
H106        H  0.65809347  0.25191191  0.94592004     0.01300
H107        H  0.57052077  0.24654841  0.98548327     0.15800
H108        H  0.63979514  0.21049166  0.03174547     0.15600
C109        C  0.26986008  0.99720156  0.13969728     0.87400
C110        C  0.26372367  0.02347454  0.11820130    -0.52800
C111        C  0.23755478  0.02105685  0.10229726     0.10300
C112        C  0.22020195  0.99251910  0.10963821     0.21300
C113        C  0.24216541  0.99559833  0.15924945    -0.53600
C114        C  0.21600875  0.99396164  0.14382750     0.10400
C115        C  0.26836642  0.96912765  0.11972004    -0.53100
C116        C  0.24248828  0.96678867  0.10360870     0.11000
H117        H  0.27847891  0.04248211  0.11657879     0.15500
H118        H  0.19896064  0.99002168  0.09716452     0.01300
H119        H  0.24317399  0.99851008  0.18330640     0.15800
H120        H  0.28656103  0.95326707  0.11754058     0.15600
C121        C  0.15779052  0.25887697  0.02328986     0.87400
C122        C  0.13808148  0.25244245  0.05087829    -0.52800
C123        C  0.12109437  0.22690248  0.04813306     0.10300
C124        C  0.12560865  0.21060834  0.01801918     0.21300
C125        C  0.17578478  0.23025450  0.01901978    -0.53600
C126        C  0.15951042  0.20463215  0.01703428     0.10400
C127        C  0.13610924  0.25950236  0.99668452    -0.53100
C128        C  0.11891711  0.23451958  0.99393499     0.11000
H129        H  0.13809416  0.26648853  0.07072592     0.15500
H130        H  0.11207258  0.19016869  0.01518151     0.01300
H131        H  0.19988383  0.23048130  0.01959033     0.15800
H132        H  0.13407361  0.27839655  0.98166281     0.15600
C133        C  0.99355238  0.08999265  0.24060091     0.87400
C134        C  0.99685445  0.11263931  0.21463818    -0.52800
C135        C  0.02159670  0.13045323  0.21697494     0.10300
C136        C  0.04032619  0.12387101  0.24512819     0.21300
C137        C  0.02300265  0.07265709  0.24071814    -0.53600
C138        C  0.04770735  0.09020477  0.24201225     0.10400
C139        C  0.99424183  0.10900233  0.26907243    -0.53100
C140        C  0.01852545  0.12698601  0.27169000     0.11000
H141        H  0.98168884  0.11363402  0.19570683     0.15500
H142        H  0.06051674  0.13780868  0.24768124     0.01300
H143        H  0.02415505  0.04892189  0.23542668     0.15800
H144        H  0.97671619  0.10849796  0.28560190     0.15600
O145        O  0.60024891  0.00690152  0.69129737    -0.56900
C146        C  0.55459285  0.91403172  0.73316600     0.75700
O147        O  0.64545312  0.93653793  0.71180169    -0.58100
C148        C  0.57409880  0.01641290  0.69501739     0.75700
C149        C  0.61950824  0.99174974  0.77436413     0.78100
Cd150      Cd  0.59663551  0.96195929  0.72189026     1.37500
O151        O  0.55199049  0.93163629  0.71120351    -0.56900
O152        O  0.60062032  0.97104097  0.77662381    -0.55700
C153        C  0.63921237  0.93188990  0.68456388     0.78100
O154        O  0.62839509  0.99755602  0.74837487    -0.58100
O155        O  0.57628166  0.91888348  0.75070432    -0.56500
O156        O  0.55686746  0.99957473  0.70950223    -0.56500
O157        O  0.61414578  0.94097105  0.67555134    -0.55700
O158        O  0.52515178  0.24128657  0.69225125    -0.56900
C159        C  0.51944209  0.33426604  0.71682262     0.75700
O160        O  0.56687565  0.32674691  0.65583287    -0.58100
C161        C  0.54782801  0.23078733  0.67945840     0.75700
C162        C  0.47147749  0.27321297  0.64233631     0.78100
Cd163      Cd  0.52713149  0.29096796  0.66913765     1.37500
O164        O  0.50278953  0.33346871  0.69389330    -0.56900
O165        O  0.49044370  0.28792514  0.62776763    -0.55700
C166        C  0.56796805  0.31932227  0.62855398     0.78100
O167        O  0.47655972  0.27009946  0.66995628    -0.58100
O168        O  0.53960798  0.31444942  0.71837823    -0.56500
O169        O  0.56355596  0.24918724  0.66534997    -0.56500
O170        O  0.54958250  0.29973822  0.61983985    -0.55700
O171        O  0.34044737  0.04573452  0.23971019    -0.56900
C172        C  0.29766530  0.00080747  0.15886657     0.75700
O173        O  0.38506619  0.02147468  0.16251413    -0.58100
C174        C  0.33105158  0.02822279  0.25960374     0.75700
C175        C  0.37380203  0.95259533  0.22718919     0.78100
Cd176      Cd  0.34776347  0.00580614  0.20123858     1.37500
O177        O  0.30012942  0.02215724  0.17744893    -0.56900
O178        O  0.34684741  0.95381350  0.21919335    -0.55700
C179        C  0.39498976  0.04290499  0.17832736     0.78100
O180        O  0.38992216  0.97421768  0.21934760    -0.58100
O181        O  0.31899655  0.98226203  0.15858031    -0.56500
O182        O  0.32583844  0.00167770  0.25132898    -0.56500
O183        O  0.38266112  0.04711266  0.20322170    -0.55700
O184        O  0.31087595  0.04395719  0.49466543    -0.56900
C185        C  0.28869671  0.04172532  0.58241946     0.75700
O186        O  0.34230719  0.11059736  0.54369702    -0.58100
C187        C  0.31922948  0.06260719  0.47523158     0.75700
C188        C  0.23960964  0.09311229  0.50463146     0.78100
Cd189      Cd  0.29620583  0.08224588  0.53269916     1.37500
O190        O  0.30954945  0.03813398  0.56372957    -0.56900
O191        O  0.24362227  0.06986115  0.52003071    -0.55700
C192        C  0.33021394  0.13036053  0.55994783     0.78100
O193        O  0.26013492  0.11231154  0.50518816    -0.58100
O194        O  0.27224421  0.06441047  0.57869459    -0.56500
O195        O  0.32031379  0.08962922  0.48358353    -0.56500
O196        O  0.30244765  0.12827624  0.56348668    -0.55700
O197        O  0.75655733  0.78822087  0.46547033    -0.56900
C198        C  0.83582605  0.77436757  0.49216570     0.75700
O199        O  0.81028205  0.84128150  0.43260500    -0.58100
C200        C  0.73696970  0.80868826  0.46479217     0.75700
C201        C  0.77564553  0.84715633  0.54000414     0.78100
Cd202      Cd  0.79613691  0.82443585  0.48355580     1.37500
O203        O  0.80807555  0.77097655  0.48889570    -0.56900
O204        O  0.79935387  0.83182523  0.54024680    -0.55700
C205        C  0.82067273  0.86627848  0.44083947     0.78100
O206        O  0.76491309  0.85331889  0.51476973    -0.58100
O207        O  0.84522239  0.80103992  0.49217476    -0.56500
O208        O  0.74578570  0.83492424  0.46996757    -0.56500
O209        O  0.82052623  0.87171731  0.46858725    -0.55700
O210        O  0.50965699  0.79368200  0.43573745    -0.56900
C211        C  0.41961119  0.76027564  0.46447411     0.75700
O212        O  0.43260046  0.78902819  0.38078326    -0.58100
C213        C  0.52513161  0.77065928  0.44148967     0.75700
C214        C  0.48396991  0.71314693  0.38372081     0.78100
Cd215      Cd  0.46559852  0.76528536  0.41862040     1.37500
O216        O  0.44024222  0.77923947  0.46729434    -0.56900
O217        O  0.48309336  0.73913806  0.37261967    -0.55700
C218        C  0.44721550  0.81304747  0.37843190     0.78100
O219        O  0.47290455  0.71052737  0.40948287    -0.58100
O220        O  0.42027220  0.74441140  0.44099293    -0.56500
O221        O  0.51203326  0.74583471  0.44002084    -0.56500
O222        O  0.47028862  0.81516739  0.39457794    -0.55700
O223        O  0.01160627  0.71526725  0.54883800    -0.56900
C224        C  0.92357190  0.72647957  0.54355960     0.75700
O225        O  0.95527389  0.71187513  0.63859139    -0.58100
C226        C  0.02894962  0.70173550  0.56656047     0.75700
C227        C  0.99745237  0.78480316  0.60678124     0.78100
Cd228      Cd  0.97293101  0.72608966  0.58699262     1.37500
O229        O  0.92489568  0.74482991  0.56533691    -0.56900
O230        O  0.99354994  0.76309170  0.62431578    -0.55700
C231        C  0.94587554  0.68624127  0.63109092     0.78100
O232        O  0.98759215  0.78091124  0.58043583    -0.58100
O233        O  0.94534878  0.70871694  0.54113264    -0.56500
O234        O  0.01961092  0.69785738  0.59278484    -0.56500
O235        O  0.94919690  0.67909093  0.60399166    -0.55700
O236        O  0.25941239  0.65837978  0.55222197    -0.56900
C237        C  0.34117308  0.69871164  0.51586630     0.75700
O238        O  0.33310525  0.60598585  0.52652151    -0.58100
C239        C  0.23989167  0.66624145  0.53322577     0.75700
C240        C  0.27487928  0.62779488  0.45640679     0.78100
Cd241      Cd  0.29852077  0.64821427  0.51383067     1.37500
O242        O  0.34111242  0.67954857  0.49492551    -0.56900
O243        O  0.29009924  0.61011902  0.47250811    -0.55700
C244        C  0.31789686  0.59589287  0.54791088     0.78100
O245        O  0.27394571  0.65470989  0.46508344    -0.58100
O246        O  0.32286455  0.69389037  0.53655733    -0.56500
O247        O  0.24821870  0.66774654  0.50643955    -0.56500
O248        O  0.29389830  0.60961619  0.55333321    -0.55700
O249        O  0.02336905  0.23543889  0.31831527    -0.56900
C250        C  0.02222249  0.14807308  0.29734511     0.75700
O251        O  0.04130174  0.15664139  0.39320021    -0.58100
C252        C  0.04564535  0.24875606  0.32941239     0.75700
C253        C  0.97679611  0.21337098  0.37893697     0.78100
Cd254      Cd  0.02850266  0.18903667  0.34844366     1.37500
O255        O  0.00441284  0.14831307  0.31913592    -0.56900
O256        O  0.00331369  0.21953003  0.38600163    -0.55700
C257        C  0.06893302  0.15657934  0.38819232     0.78100
O258        O  0.97337668  0.19304957  0.35934452    -0.58100
O259        O  0.04294937  0.16703406  0.29865235    -0.56500
O260        O  0.06146074  0.23371630  0.34744208    -0.56500
O261        O  0.07722344  0.17150125  0.36588830    -0.55700
O262        O  0.04939626  0.48047452  0.27648510    -0.56900
C263        C  0.04153813  0.57074790  0.26781525     0.75700
O264        O  0.11086175  0.55819861  0.30783008    -0.58100
C265        C  0.06579399  0.46408152  0.29271031     0.75700
C266        C  0.10731780  0.50668198  0.21391829     0.78100
Cd267      Cd  0.08589734  0.52288377  0.27255560     1.37500
O268        O  0.04255702  0.55407147  0.29064574    -0.56900
O269        O  0.11904675  0.52848147  0.22767206    -0.55700
C270        C  0.13466232  0.54336757  0.31099082     0.78100
O271        O  0.08520867  0.49481357  0.22616570    -0.58100
O272        O  0.06042656  0.56508733  0.24774385    -0.56500
O273        O  0.08943813  0.47604150  0.30228568    -0.56500
O274        O  0.13612164  0.51901505  0.29660277    -0.55700
O275        O  0.81554810  0.47644301  0.74519383    -0.56900
C276        C  0.80031771  0.48153067  0.83691686     0.75700
O277        O  0.86517434  0.42740692  0.80273031    -0.58100
C278        C  0.83171421  0.45878762  0.73020311     0.75700
C279        C  0.86960749  0.53579801  0.76895791     0.78100
Cd280      Cd  0.84729512  0.47817231  0.79087052     1.37500
O281        O  0.82246091  0.49889847  0.83682666    -0.56900
O282        O  0.88576520  0.51930243  0.78542344    -0.55700
C283        C  0.88931340  0.43426547  0.81564852     0.78100
O284        O  0.84322659  0.52706264  0.76503587    -0.58100
O285        O  0.79950485  0.46256595  0.81588712    -0.56500
O286        O  0.85415763  0.44817305  0.74372509    -0.56500
O287        O  0.89505777  0.46199942  0.81709818    -0.55700
O288        O  0.79158404  0.42982234  0.50146025    -0.56900
C289        C  0.76956893  0.44337096  0.41342493     0.75700
O290        O  0.82414180  0.37230397  0.44652430    -0.58100
C291        C  0.80222528  0.40951923  0.51810163     0.75700
C292        C  0.72173692  0.37900996  0.48811662     0.78100
Cd293      Cd  0.77677771  0.39604112  0.45947453     1.37500
O294        O  0.79213793  0.44217379  0.43041362    -0.56900
O295        O  0.73419160  0.40384111  0.49285092    -0.55700
C296        C  0.81429294  0.34841756  0.43491062     0.78100
O297        O  0.73311374  0.36261139  0.46799005    -0.58100
O298        O  0.75073103  0.42280232  0.41718895    -0.56500
O299        O  0.80362131  0.38360064  0.50673579    -0.56500
O300        O  0.78627052  0.34635073  0.43307737    -0.55700
O301        O  0.21634496  0.93965767  0.99542129    -0.56900
C302        C  0.23776279  0.94382492  0.07996644     0.75700
O303        O  0.21419425  0.84940878  0.05085038    -0.58100
C304        C  0.20477030  0.92270166  0.97587046     0.75700
C305        C  0.28418419  0.87996124  0.00585694     0.78100
Cd306      Cd  0.22848348  0.90025123  0.03181393     1.37500
O307        O  0.25503243  0.92169524  0.07644202    -0.56900
O308        O  0.27277471  0.86625048  0.02761234    -0.55700
C309        C  0.18738219  0.85652016  0.05543383     0.78100
O310        O  0.27078346  0.90331274  0.99737564    -0.58100
O311        O  0.21646952  0.94576085  0.06155375    -0.56500
O312        O  0.20181180  0.89548284  0.98297812    -0.56500
O313        O  0.18001537  0.88299400  0.04885612    -0.55700
O314        O  0.18338250  0.94636470  0.74297624    -0.56900
C315        C  0.22683681  0.99163322  0.66323025     0.75700
O316        O  0.13195674  0.96994094  0.67179385    -0.58100
C317        C  0.19487540  0.96329594  0.76253919     0.75700
C318        C  0.14343206  0.03411434  0.73428468     0.78100
Cd319      Cd  0.17580919  0.98562313  0.70507863     1.37500
O320        O  0.20524442  0.97421859  0.65866056    -0.56900
O321        O  0.14057670  0.00674593  0.73986347    -0.55700
C322        C  0.13244060  0.94292478  0.68066560     0.78100
O323        O  0.15851337  0.04029556  0.71126450    -0.58100
O324        O  0.22476951  0.00763774  0.68653746    -0.56500
O325        O  0.20262040  0.98892324  0.75382968    -0.56500
O326        O  0.15280609  0.93633441  0.69915419    -0.55700
O327        O  0.00512495  0.19526927  0.91500682    -0.56900
C328        C  0.09541826  0.23167129  0.97050234     0.75700
O329        O  0.07159587  0.21393943  0.87306948    -0.58100
C330        C  0.99409850  0.20111326  0.94034908     0.75700
C331        C  0.02231005  0.28162447  0.90185636     0.78100
Cd332      Cd  0.05014407  0.22568812  0.92305490     1.37500
O333        O  0.09356069  0.24955468  0.94874726    -0.56900
O334        O  0.00881732  0.26168966  0.91608324    -0.55700
C335        C  0.07473711  0.18616267  0.87736945     0.78100
O336        O  0.04986238  0.27714817  0.89814746    -0.58100
O337        O  0.07595408  0.21142577  0.97111645    -0.56500
O338        O  0.01025462  0.21570521  0.95856936    -0.56500
O339        O  0.06685955  0.17671134  0.90263897    -0.55700
O340        O  0.76465090  0.16380661  0.94152282    -0.56900
C341        C  0.67822190  0.20502234  0.98495586     0.75700
O342        O  0.71248582  0.14452188  0.92613375    -0.58100
C343        C  0.78048306  0.18071062  0.95765605     0.75700
C344        C  0.75156191  0.12497856  0.02549501     0.78100
Cd345      Cd  0.72423857  0.15912419  0.97667525     1.37500
O346        O  0.68154495  0.18294735  0.00231196    -0.56900
O347        O  0.75803933  0.12119600  0.99834409    -0.55700
C348        C  0.69867081  0.12079689  0.93174487     0.78100
O349        O  0.73066963  0.14335967  0.03069457    -0.58100
O350        O  0.69700892  0.20705046  0.96424300    -0.56500
O351        O  0.76879302  0.19089254  0.98135491    -0.56500
O352        O  0.69565615  0.11425094  0.95908034    -0.55700
O353        O  0.90816902  0.97585746  0.21323470    -0.56900
C354        C  0.96702561  0.06923879  0.23856070     0.75700
O355        O  0.87433930  0.05699200  0.21763679    -0.58100
C356        C  0.93464799  0.96856723  0.20754148     0.75700
C357        C  0.89291716  0.00358680  0.28853153     0.78100
Cd358      Cd  0.91814895  0.02580607  0.23279033     1.37500
O359        O  0.94956742  0.06890989  0.21638044    -0.56900
O360        O  0.91766803  0.99520473  0.27829673    -0.55700
C361        C  0.87533815  0.04960859  0.19021995     0.78100
O362        O  0.88007920  0.02460960  0.27447630    -0.58100
O363        O  0.96146495  0.05042365  0.25874888    -0.56500
O364        O  0.95415381  0.98845196  0.21197612    -0.56500
O365        O  0.89575847  0.03153596  0.18287201    -0.55700
O366        O  0.01083562  0.67291353  0.20520772    -0.56900
C367        C  0.96977632  0.75555812  0.17637027     0.75700
O368        O  0.01542781  0.72520130  0.12484310    -0.58100
C369        C  0.99083183  0.65376256  0.20993237     0.75700
C370        C  0.95194058  0.67379762  0.11018247     0.78100
Cd371      Cd  0.98812427  0.69562479  0.15898810     1.37500
O372        O  0.95077929  0.73502713  0.17308850    -0.56900
O373        O  0.97973692  0.66933126  0.11048650    -0.55700
C374        C  0.04120207  0.71505846  0.12976387     0.78100
O375        O  0.94104494  0.68732860  0.13242342    -0.58100
O376        O  0.99660931  0.74760917  0.17503968    -0.56500
O377        O  0.97001948  0.65313947  0.19086855    -0.56500
O378        O  0.04308218  0.69221909  0.14645572    -0.55700
O379        O  0.70141571  0.55382998  0.99677082    -0.56900
C380        C  0.74290191  0.53501098  0.91886512     0.75700
O381        O  0.72073309  0.62902115  0.93363355    -0.58100
C382        C  0.70982944  0.56770260  0.02014054     0.75700
C383        C  0.79272303  0.59927219  0.98397907     0.78100
Cd384      Cd  0.73457060  0.58303101  0.96239049     1.37500
O385        O  0.74395759  0.56199470  0.91069673    -0.56900
O386        O  0.78155542  0.57369464  0.98716035    -0.55700
C387        C  0.69383134  0.62890837  0.94164657     0.78100
O388        O  0.77791202  0.61775754  0.96846992    -0.58100
O389        O  0.73784345  0.53089121  0.94624294    -0.56500
O390        O  0.72784469  0.58894788  0.01629639    -0.56500
O391        O  0.68595542  0.60746003  0.95801214    -0.55700
O392        O  0.68740386  0.53444881  0.25324566    -0.56900
C393        C  0.70987785  0.50181085  0.33513738     0.75700
O394        O  0.63170452  0.55662299  0.29608316    -0.58100
C395        C  0.67155306  0.52557677  0.23141019     0.75700
C396        C  0.63930999  0.44957768  0.27250332     0.78100
Cd397      Cd  0.65874255  0.50787535  0.29290459     1.37500
O398        O  0.68831851  0.48374178  0.33536917    -0.56900
O399        O  0.66583578  0.45832833  0.26981347    -0.55700
C400        C  0.61336518  0.54963993  0.31607026     0.78100
O401        O  0.62214682  0.46644601  0.28741607    -0.58100
O402        O  0.70750282  0.52282595  0.31641796    -0.56500
O403        O  0.64955959  0.50955643  0.23795180    -0.56500
O404        O  0.61587811  0.52333723  0.32613562    -0.55700
O405        O  0.51680553  0.27672735  0.06199432    -0.56900
C406        C  0.59291049  0.25018419  0.04203702     0.75700
O407        O  0.59420418  0.27247844  0.12155745    -0.58100
C408        C  0.49460006  0.26842037  0.07695097     0.75700
C409        C  0.53815445  0.18702059  0.10752967     0.78100
Cd410      Cd  0.55343694  0.24802469  0.09272613     1.37500
O411        O  0.57159219  0.26848658  0.04512693    -0.56900
O412        O  0.54914554  0.20450796  0.12701477    -0.55700
C413        C  0.57769353  0.28783681  0.13847914     0.78100
O414        O  0.53783637  0.19637553  0.08094063    -0.58100
O415        O  0.59618184  0.23093086  0.06253164    -0.56500
O416        O  0.49989850  0.25164883  0.09895822    -0.56500
O417        O  0.55010468  0.28390931  0.13533475    -0.55700
O418        O  0.18223517  0.30389624  0.00431030    -0.56900
C419        C  0.28499427  0.31696344  0.04597702     0.75700
O420        O  0.23085986  0.37026353  0.98679316    -0.58100
C421        C  0.17876334  0.28555286  0.02546460     0.75700
C422        C  0.20219673  0.37981901  0.06622850     0.78100
Cd423      Cd  0.22472259  0.33319189  0.02770073     1.37500
O424        O  0.27924228  0.33752073  0.02769723    -0.56900
O425        O  0.19835392  0.38130153  0.03828658    -0.55700
C426        C  0.24534239  0.35257897  0.97000349     0.78100
O427        O  0.21774504  0.35831356  0.07580211    -0.58100
O428        O  0.26282985  0.30396849  0.05718677    -0.56500
O429        O  0.19604166  0.28917180  0.04753793    -0.56500
O430        O  0.24705307  0.32554296  0.97832912    -0.55700
O431        O  0.47661523  0.82637476  0.80298191    -0.56900
C432        C  0.47484070  0.72860058  0.82092814     0.75700
O433        O  0.54721239  0.77829633  0.84017625    -0.58100
C434        C  0.50162534  0.83151975  0.79137047     0.75700
C435        C  0.44875991  0.81381812  0.87955899     0.78100
Cd436      Cd  0.49335599  0.78824558  0.83981887     1.37500
O437        O  0.46968168  0.75092988  0.80434450    -0.56900
O438        O  0.47027482  0.82925801  0.87026754    -0.55700
C439        C  0.54937215  0.77316033  0.86782630     0.78100
O440        O  0.44840617  0.78669747  0.87155451    -0.58100
O441        O  0.48811490  0.73388160  0.84521002    -0.56500
O442        O  0.52322458  0.81667667  0.80194214    -0.56500
O443        O  0.52657283  0.77873933  0.88335768    -0.55700
O444        O  0.40536966  0.51263445  0.77442852    -0.56900
C445        C  0.46321568  0.41772734  0.76743305     0.75700
O446        O  0.38077729  0.41949840  0.79365399    -0.58100
C447        C  0.43021992  0.51763762  0.78657190     0.75700
C448        C  0.38452279  0.46762417  0.70885978     0.78100
Cd449      Cd  0.41136440  0.45829259  0.76797878     1.37500
O450        O  0.44631555  0.41998028  0.78980496    -0.56900
O451        O  0.36994291  0.45635280  0.73003027    -0.55700
C452        C  0.36766236  0.43743731  0.81126468     0.78100
O453        O  0.41189483  0.47142574  0.71384122    -0.58100
O454        O  0.45592425  0.43345763  0.74509904    -0.56500
O455        O  0.44652575  0.49503840  0.79128993    -0.56500
O456        O  0.37421318  0.46475847  0.80860675    -0.55700
C457        C  0.46502055  0.59440518  0.80272976     0.16900
C458        C  0.48394698  0.61887256  0.80738006    -0.32200
C459        C  0.47100555  0.64750150  0.80876916     0.21300
C460        C  0.44059752  0.65163349  0.80562674     0.03500
C461        C  0.42168085  0.62716121  0.80122617    -0.21900
C462        C  0.43461399  0.59858590  0.79972369     0.12600
S463        S  0.47627410  0.55790175  0.79967004    -0.05600
C464        C  0.43964295  0.54829334  0.79399183    -0.09000
C465        C  0.41997050  0.57222874  0.79467504    -0.25600
S466        S  0.42926357  0.68815624  0.80785099    -0.02800
C467        C  0.46583451  0.69795673  0.81313830    -0.16300
C468        C  0.48556215  0.67403512  0.81344745    -0.14300
H469        H  0.50771771  0.61575623  0.80967366     0.21100
H470        H  0.39791772  0.63027551  0.79884856     0.17100
H471        H  0.39621036  0.57047481  0.79119179     0.19600
H472        H  0.50927034  0.67599694  0.81717367     0.13000
C473        C  0.29599327  0.36932757  0.90341427     0.16900
C474        C  0.31767872  0.36812536  0.88110959    -0.32200
C475        C  0.32421236  0.39460167  0.86589623     0.21300
C476        C  0.30993989  0.42128310  0.87272203     0.03500
C477        C  0.28810424  0.42250658  0.89509534    -0.21900
C478        C  0.28146353  0.39586566  0.91027138     0.12600
S479        S  0.28569845  0.33963596  0.92470554    -0.05600
C480        C  0.26135752  0.36292843  0.94324364    -0.09000
C481        C  0.26150546  0.39234973  0.93321937    -0.25600
S482        S  0.32197836  0.45104136  0.85215138    -0.02800
C483        C  0.34629269  0.42716230  0.83403686    -0.16300
C484        C  0.34485152  0.39777767  0.84366518    -0.14300
H485        H  0.32913971  0.34741639  0.87596133     0.21100
H486        H  0.27698876  0.44331845  0.90058998     0.17100
H487        H  0.24836162  0.41031587  0.94272638     0.19600
H488        H  0.35865751  0.37975969  0.83527252     0.13000
C489        C  0.41850541  0.29690332  0.04972329     0.16900
C490        C  0.39443375  0.31062153  0.03507293    -0.32200
C491        C  0.36597690  0.30628211  0.04693868     0.21300
C492        C  0.36160877  0.28886991  0.07205140     0.03500
C493        C  0.38563560  0.27520774  0.08665721    -0.21900
C494        C  0.41403332  0.27970529  0.07495903     0.12600
S495        S  0.45490876  0.29953991  0.03930211    -0.05600
C496        C  0.46402070  0.27743709  0.06945700    -0.09000
C497        C  0.44000927  0.26847253  0.08630250    -0.25600
S498        S  0.32535794  0.28590078  0.08267476    -0.02800
C499        C  0.31591166  0.30857141  0.05312307    -0.16300
C500        C  0.33980732  0.31779273  0.03607763    -0.14300
H501        H  0.39772983  0.32414663  0.01538857     0.21100
H502        H  0.38235037  0.26168206  0.10634282     0.17100
H503        H  0.44149276  0.25451153  0.10596339     0.19600
H504        H  0.33805263  0.33187146  0.01652168     0.13000
C505        C  0.61870562  0.34602823  0.18673583     0.16900
C506        C  0.63909752  0.36635251  0.19901921    -0.32200
C507        C  0.62931525  0.38511987  0.22220873     0.21300
C508        C  0.60049518  0.38377714  0.23276767     0.03500
C509        C  0.58005419  0.36342464  0.22045287    -0.21900
C510        C  0.58982281  0.34469531  0.19715508     0.12600
S511        S  0.62617827  0.32177328  0.15810636    -0.05600
C512        C  0.58994577  0.30978647  0.15992756    -0.09000
C513        C  0.57314545  0.32398545  0.18174538    -0.25600
S514        S  0.59272878  0.40949342  0.26013951    -0.02800
C515        C  0.62868518  0.42221329  0.25727521    -0.16300
C516        C  0.64559603  0.40697778  0.23626419    -0.14300
H517        H  0.66154353  0.36770792  0.19063613     0.21100
H518        H  0.55742316  0.36252065  0.22838906     0.17100
H519        H  0.54990337  0.31962432  0.18587265     0.19600
H520        H  0.66829057  0.41242575  0.23067811     0.13000
C521        C  0.63167841  0.68656622  0.92991806     0.16900
C522        C  0.60553606  0.70351272  0.93165423    -0.32200
C523        C  0.60050109  0.72515879  0.90969385     0.21300
C524        C  0.62065307  0.72984481  0.88694566     0.03500
C525        C  0.64731559  0.71338414  0.88564822    -0.21900
C526        C  0.65230661  0.69156136  0.90765665     0.12600
S527        S  0.64047374  0.65793173  0.95333709    -0.05600
C528        C  0.67257121  0.65263315  0.93335631    -0.09000
C529        C  0.67616757  0.67228810  0.90973370    -0.25600
S530        S  0.60855934  0.75469474  0.86054352    -0.02800
C531        C  0.57613924  0.75883756  0.88052287    -0.16300
C532        C  0.57522690  0.74206663  0.90642235    -0.14300
H533        H  0.58933312  0.69933116  0.94887030     0.21100
H534        H  0.66296556  0.71673084  0.86774154     0.17100
H535        H  0.69481628  0.67204870  0.89460146     0.19600
H536        H  0.55610950  0.74052013  0.92086165     0.13000
C537        C  0.68002689  0.53935111  0.09582679     0.16900
C538        C  0.66522265  0.52550055  0.11966052    -0.32200
C539        C  0.67480302  0.53230205  0.14902010     0.21300
C540        C  0.69822339  0.55169749  0.15427071     0.03500
C541        C  0.71286284  0.56545872  0.13058331    -0.21900
C542        C  0.70312272  0.55901405  0.10144797     0.12600
S543        S  0.67237716  0.53435824  0.05841265    -0.05600
C544        C  0.70035231  0.55941601  0.05060252    -0.09000
C545        C  0.71463796  0.57060863  0.07579777    -0.25600
S546        S  0.70688864  0.55704630  0.19115413    -0.02800
C547        C  0.67845753  0.53319906  0.20004940    -0.16300
C548        C  0.66328595  0.52161748  0.17532056    -0.14300
H549        H  0.64704116  0.51021146  0.11553101     0.21100
H550        H  0.73107706  0.58071296  0.13470683     0.17100
H551        H  0.73295368  0.58622090  0.07537272     0.19600
H552        H  0.64490690  0.50614202  0.17653631     0.13000
C553        C  0.85957257  0.61067748  0.03539833     0.16900
C554        C  0.87949092  0.60907101  0.05940204    -0.32200
C555        C  0.89863846  0.63316626  0.06398299     0.21300
C556        C  0.89848641  0.65771744  0.04516363     0.03500
C557        C  0.87848020  0.65931668  0.02091199    -0.21900
C558        C  0.85875730  0.63532521  0.01670811     0.12600
S559        S  0.83348246  0.58436531  0.02781327    -0.05600
C560        C  0.82051534  0.60691018  0.99953872    -0.09000
C561        C  0.83613842  0.63333377  0.99593432    -0.25600
S562        S  0.92280620  0.68519338  0.05578360    -0.02800
C563        C  0.93281945  0.66321089  0.08578000    -0.16300
C564        C  0.91817648  0.63625824  0.08731657    -0.14300
H565        H  0.87948327  0.59015623  0.07441876     0.21100
H566        H  0.87772092  0.67873105  0.00656212     0.17100
H567        H  0.83062643  0.65048747  0.97980552     0.19600
H568        H  0.92095870  0.62022501  0.10518730     0.13000
C569        C  0.96422674  0.89110438  0.18463332     0.16900
C570        C  0.98161146  0.86580290  0.17814001    -0.32200
C571        C  0.96793876  0.83767418  0.17977628     0.21300
C572        C  0.93813041  0.83485377  0.18672234     0.03500
C573        C  0.92064940  0.86015212  0.19260860    -0.21900
C574        C  0.93445065  0.88817285  0.19165667     0.12600
S575        S  0.97712513  0.92703409  0.18685963    -0.05600
C576        C  0.94202639  0.93803553  0.19753415    -0.09000
C577        C  0.92158138  0.91501016  0.19876180    -0.25600
S578        S  0.92587864  0.79875378  0.18829861    -0.02800
C579        C  0.96145809  0.78724014  0.18023312    -0.16300
C580        C  0.98142457  0.81039187  0.17597413    -0.14300
H581        H  0.00497907  0.86786245  0.17303486     0.21100
H582        H  0.89748384  0.85803544  0.19852948     0.17100
H583        H  0.89874773  0.91757826  0.20581054     0.19600
H584        H  0.00460403  0.80739117  0.17033942     0.13000
C585        C  0.80510921  0.08274129  0.07823008     0.16900
C586        C  0.82867238  0.06612931  0.09058327    -0.32200
C587        C  0.83337248  0.06803156  0.12158816     0.21300
C588        C  0.81531442  0.08554596  0.13959576     0.03500
C589        C  0.79154062  0.10197408  0.12724479    -0.21900
C590        C  0.78691781  0.10022721  0.09614666     0.12600
S591        S  0.79688540  0.08468844  0.04095986    -0.05600
C592        C  0.76860264  0.10946422  0.04934247    -0.09000
C593        C  0.76578193  0.11549687  0.07970420    -0.25600
S594        S  0.82524786  0.08529338  0.17664608    -0.02800
C595        C  0.85401081  0.06131181  0.16777987    -0.16300
C596        C  0.85552641  0.05406485  0.13760127    -0.14300
H597        H  0.84303170  0.05267647  0.07655368     0.21100
H598        H  0.77753946  0.11586619  0.14120554     0.17100
H599        H  0.74984111  0.13102047  0.08913514     0.19600
H600        H  0.87212506  0.03947292  0.12782898     0.13000
C601        C  0.91295937  0.19844630  0.96353744     0.16900
C602        C  0.88536880  0.20543753  0.97595400    -0.32200
C603        C  0.85995919  0.19567165  0.96069507     0.21300
C604        C  0.86185156  0.17927019  0.93437880     0.03500
C605        C  0.88952846  0.17226044  0.92186730    -0.21900
C606        C  0.91502100  0.18242185  0.93700169     0.12600
S607        S  0.94609270  0.21008938  0.97786585    -0.05600
C608        C  0.96308486  0.19405931  0.94739544    -0.09000
C609        C  0.94387578  0.17967568  0.92764398    -0.25600
S610        S  0.82831957  0.16818034  0.92030206    -0.02800
C611        C  0.81172557  0.18579053  0.95029229    -0.16300
C612        C  0.83127288  0.19975623  0.96976430    -0.14300
H613        H  0.88377253  0.21820351  0.99651446     0.21100
H614        H  0.89110816  0.15964895  0.90120795     0.17100
H615        H  0.95045079  0.16938227  0.90673969     0.19600
H616        H  0.82497514  0.21082592  0.99036269     0.13000
C617        C  0.10617542  0.14200849  0.81022923     0.16900
C618        C  0.11762239  0.13241418  0.78255663    -0.32200
C619        C  0.12094082  0.10143910  0.77770205     0.21300
C620        C  0.11320724  0.08115266  0.79960476     0.03500
C621        C  0.10226020  0.09071210  0.82732274    -0.21900
C622        C  0.09887223  0.12152622  0.83208482     0.12600
S623        S  0.09936383  0.17841730  0.82020729    -0.05600
C624        C  0.08664879  0.16585395  0.85414949    -0.09000
C625        C  0.08787059  0.13502811  0.85735017    -0.25600
S626        S  0.11828333  0.04471533  0.78972151    -0.02800
C627        C  0.13118838  0.05644934  0.75554101    -0.16300
C628        C  0.13159377  0.08737638  0.75230012    -0.14300
H629        H  0.12340111  0.14837198  0.76548123     0.21100
H630        H  0.09636026  0.07474874  0.84436757     0.17100
H631        H  0.08062518  0.12306856  0.87695075     0.19600
H632        H  0.13948139  0.09888575  0.73270486     0.13000
C633        C  0.11331818  0.75392595  0.10446270     0.16900
C634        C  0.14223439  0.76348325  0.09730029    -0.32200
C635        C  0.14548825  0.79288830  0.08637955     0.21300
C636        C  0.12113727  0.81178186  0.08341279     0.03500
C637        C  0.09265050  0.80228524  0.09042046    -0.21900
C638        C  0.08935987  0.77307743  0.10056346     0.12600
S639        S  0.10354489  0.71951379  0.11843077    -0.05600
C640        C  0.06694448  0.73142972  0.11801374    -0.09000
C641        C  0.06308843  0.76035382  0.10791771    -0.25600
S642        S  0.12875097  0.84634761  0.07003653    -0.02800
C643        C  0.16531434  0.83562599  0.06750221    -0.16300
C644        C  0.17121453  0.80658974  0.07714365    -0.14300
H645        H  0.16118921  0.74871714  0.09990896     0.21100
H646        H  0.07367343  0.81704285  0.08778134     0.17100
H647        H  0.04195550  0.77200594  0.10678453     0.19600
H648        H  0.19293236  0.79609869  0.07713283     0.13000
C649        C  0.20020455  0.95793814  0.89816466     0.16900
C650        C  0.20655330  0.97457288  0.87250041    -0.32200
C651        C  0.19992023  0.96161910  0.84460013     0.21300
C652        C  0.18666287  0.93376508  0.84240662     0.03500
C653        C  0.17975451  0.91740531  0.86807917    -0.21900
C654        C  0.18728536  0.92991252  0.89594277     0.12600
S655        S  0.20993047  0.96811205  0.93373174    -0.05600
C656        C  0.19748056  0.93382795  0.94569309    -0.09000
C657        C  0.18541984  0.91605581  0.92319463    -0.25600
S658        S  0.18050931  0.92185993  0.80657660    -0.02800
C659        C  0.19634385  0.95453648  0.79425705    -0.16300
C660        C  0.20550760  0.97368527  0.81703762    -0.14300
H661        H  0.21721530  0.99618677  0.87417745     0.21100
H662        H  0.16989735  0.89540961  0.86635785     0.17100
H663        H  0.17757163  0.89343194  0.92628130     0.19600
H664        H  0.21503081  0.99558902  0.81362349     0.13000
C665        C  0.35184900  0.84137065  0.96985170     0.16900
C666        C  0.37438847  0.82153303  0.96084483    -0.32200
C667        C  0.39071554  0.82884759  0.93527580     0.21300
C668        C  0.38515746  0.85498155  0.91961582     0.03500
C669        C  0.36237495  0.87459840  0.92838381    -0.21900
C670        C  0.34588060  0.86713434  0.95376045     0.12600
S671        S  0.32909313  0.83632998  0.99988314    -0.05600
C672        C  0.31103471  0.86903897  0.99037869    -0.09000
C673        C  0.32251604  0.88305973  0.96541081    -0.25600
S674        S  0.40804183  0.86027846  0.88977520    -0.02800
C675        C  0.42497647  0.82670829  0.89815924    -0.16300
C676        C  0.41323889  0.81227242  0.92273256    -0.14300
H677        H  0.37890243  0.80120446  0.97313794     0.21100
H678        H  0.35767667  0.89479538  0.91593617     0.17100
H679        H  0.31379302  0.90353422  0.95587163     0.19600
H680        H  0.42100227  0.79093156  0.93112147     0.13000
C681        C  0.98556473  0.35465148  0.87257478     0.16900
C682        C  0.97737420  0.38408018  0.86448835    -0.32200
C683        C  0.94927910  0.38848553  0.85085700     0.21300
C684        C  0.93050313  0.36454537  0.84542917     0.03500
C685        C  0.93845814  0.33544232  0.85385430    -0.21900
C686        C  0.96618211  0.33112539  0.86765628     0.12600
S687        S  0.01875153  0.34387419  0.88873581    -0.05600
C688        C  0.00581809  0.30754811  0.88936468    -0.09000
C689        C  0.97744573  0.30436084  0.87754224    -0.25600
S690        S  0.89786565  0.37379473  0.82815304    -0.02800
C691        C  0.90895683  0.41062239  0.82830873    -0.16300
C692        C  0.93689900  0.41519063  0.84120812    -0.14300
H693        H  0.99224197  0.40264736  0.86852864     0.21100
H694        H  0.92360693  0.31685843  0.84976937     0.17100
H695        H  0.96572751  0.28330302  0.87593973     0.19600
H696        H  0.94757884  0.43675059  0.84328404     0.13000
C697        C  0.81255439  0.45451225  0.64626490     0.16900
C698        C  0.80349869  0.46058078  0.61683550    -0.32200
C699        C  0.81004458  0.43925014  0.59469150     0.21300
C700        C  0.82465597  0.41278681  0.60155105     0.03500
C701        C  0.83418180  0.40690483  0.63098661    -0.21900
C702        C  0.82795250  0.42848890  0.65313206     0.12600
S703        S  0.80637336  0.47753531  0.67620515    -0.05600
C704        C  0.82535578  0.45232566  0.69831418    -0.09000
C705        C  0.83568524  0.42726371  0.68298149    -0.25600
S706        S  0.82868168  0.38904520  0.57162671    -0.02800
C707        C  0.81095184  0.41532765  0.54957157    -0.16300
C708        C  0.80246607  0.44097221  0.56494520    -0.14300
H709        H  0.79168592  0.48102504  0.61144886     0.21100
H710        H  0.84576789  0.38634529  0.63641641     0.17100
H711        H  0.84823790  0.40921055  0.69310526     0.19600
H712        H  0.79031155  0.45945414  0.55510127     0.13000
C713        C  0.15488740  0.41878680  0.12446201     0.16900
C714        C  0.13500403  0.42479860  0.14737327    -0.32200
C715        C  0.13208686  0.45436960  0.15687450     0.21300
C716        C  0.14834364  0.47733000  0.14441209     0.03500
C717        C  0.16758754  0.47147419  0.12033642    -0.21900
C718        C  0.17041885  0.44152102  0.11061632     0.12600
S719        S  0.16269240  0.38375588  0.11205647    -0.05600
C720        C  0.18650693  0.39944729  0.08705646    -0.09000
C721        C  0.18845950  0.43045297  0.08835000    -0.25600
S722        S  0.14392786  0.51102371  0.16258652    -0.02800
C723        C  0.11966534  0.49351952  0.18649375    -0.16300
C724        C  0.11523540  0.46360719  0.18027794    -0.14300
H725        H  0.12295498  0.40693766  0.15806404     0.21100
H726        H  0.18040645  0.48917719  0.11033960     0.17100
H727        H  0.20263736  0.44387409  0.07438606     0.19600
H728        H  0.10180163  0.44876088  0.19357276     0.13000
C729        C  0.04153609  0.38135148  0.29815115     0.16900
C730        C  0.02788516  0.35323434  0.29505340    -0.32200
C731        C  0.04246259  0.32826810  0.30752100     0.21300
C732        C  0.06943355  0.33117344  0.32236732     0.03500
C733        C  0.08310980  0.35920830  0.32533013    -0.21900
C734        C  0.06850943  0.38415089  0.31299522     0.12600
S735        S  0.02788277  0.41441240  0.28428424    -0.05600
C736        C  0.05882316  0.43224993  0.29873267    -0.09000
C737        C  0.07844790  0.41318676  0.31345548    -0.25600
S738        S  0.08303357  0.29846926  0.33686057    -0.02800
C739        C  0.05208327  0.28049775  0.32281943    -0.16300
C740        C  0.03247927  0.29920267  0.30756620    -0.14300
H741        H  0.00678949  0.35093126  0.28351923     0.21100
H742        H  0.10416069  0.36151943  0.33694700     0.17100
H743        H  0.09938294  0.42008203  0.32329644     0.19600
H744        H  0.01155291  0.29209288  0.29786364     0.13000
C745        C  0.92286490  0.27125352  0.41137329     0.16900
C746        C  0.91090234  0.29763030  0.42308721    -0.32200
C747        C  0.88026290  0.30202580  0.42061836     0.21300
C748        C  0.86183445  0.28090339  0.40750980     0.03500
C749        C  0.87392232  0.25419093  0.39550417    -0.21900
C750        C  0.90504996  0.25001170  0.39751997     0.12600
S751        S  0.95979990  0.26328369  0.41134956    -0.05600
C752        C  0.95201484  0.23107359  0.39168461    -0.09000
C753        C  0.92181787  0.22667306  0.38597096    -0.25600
S754        S  0.82490955  0.29129260  0.40759353    -0.02800
C755        C  0.83502526  0.32447513  0.42502439    -0.16300
C756        C  0.86522441  0.32678191  0.43038653    -0.14300
H757        H  0.92505114  0.31435502  0.43337624     0.21100
H758        H  0.85983744  0.23769873  0.38477302     0.17100
H759        H  0.91280848  0.20812422  0.37322405     0.19600
H760        H  0.87578476  0.34568508  0.44126910     0.13000
C761        C  0.35596961  0.53408463  0.59439041     0.16900
C762        C  0.37693695  0.51644226  0.60973863    -0.32200
C763        C  0.36786103  0.50216810  0.63602591     0.21300
C764        C  0.33880961  0.50424460  0.64586951     0.03500
C765        C  0.31769987  0.52152007  0.63025563    -0.21900
C766        C  0.32713501  0.53687403  0.60470257     0.12600
S767        S  0.36363140  0.55608095  0.56424871    -0.05600
C768        C  0.32801021  0.57021426  0.56622884    -0.09000
C769        C  0.31095694  0.55749110  0.58856472    -0.25600
S770        S  0.33282720  0.48719394  0.67944133    -0.02800
C771        C  0.37009929  0.47813456  0.68091670    -0.16300
C772        C  0.38588842  0.48723795  0.65601704    -0.14300
H773        H  0.39976884  0.51521035  0.60239276     0.21100
H774        H  0.29531894  0.52417627  0.63858219     0.17100
H775        H  0.28834726  0.56400806  0.59363537     0.18400
H776        H  0.40966935  0.48467922  0.65351882     0.13000
C777        C  0.20163006  0.56039676  0.36280750     0.16900
C778        C  0.22664798  0.55937117  0.38189371    -0.32200
C779        C  0.23430756  0.58564291  0.39763188     0.21300
C780        C  0.21809198  0.61181309  0.39390459     0.03500
C781        C  0.19316743  0.61279860  0.37496714    -0.21900
C782        C  0.18515766  0.58648990  0.35982698     0.12600
S783        S  0.18784980  0.53090318  0.34243485    -0.05600
C784        C  0.15921892  0.55385906  0.33049948    -0.09000
C785        C  0.16081630  0.58284952  0.34152002    -0.25600
S786        S  0.23005894  0.64104670  0.41536598    -0.02800
C787        C  0.25697061  0.61787951  0.43030370    -0.16300
C788        C  0.25667883  0.58894322  0.41866882    -0.14300
H789        H  0.23920114  0.53886489  0.38480622     0.21100
H790        H  0.18015302  0.63309723  0.37264590     0.17100
H791        H  0.14483217  0.60034282  0.33657222     0.19600
H792        H  0.27127209  0.57106410  0.42596761     0.13000
C793        C  0.90035528  0.63000417  0.67675382     0.16900
C794        C  0.87969208  0.60892763  0.68672046    -0.32200
C795        C  0.88481458  0.59546851  0.71459810     0.21300
C796        C  0.90951353  0.60254568  0.73184266     0.03500
C797        C  0.92971423  0.62445258  0.72230362    -0.21900
C798        C  0.92451256  0.63805738  0.69438579     0.12600
S799        S  0.89927654  0.64685675  0.64253585    -0.05600
C800        C  0.93119613  0.66580065  0.65223552    -0.09000
C801        C  0.94206290  0.65905763  0.68059742    -0.25600
S802        S  0.91326564  0.58108290  0.76341190    -0.02800
C803        C  0.88097778  0.56270232  0.75344255    -0.16300
C804        C  0.86814192  0.57318106  0.72713225    -0.14300
H805        H  0.86085779  0.60262129  0.67291070     0.21100
H806        H  0.94908802  0.63002412  0.73565077     0.17100
H807        H  0.96223710  0.66824019  0.69015602     0.19600
H808        H  0.84845235  0.56376459  0.71677019     0.13000
C809        C  0.10643006  0.68580426  0.53493699     0.16900
C810        C  0.13224182  0.68433336  0.51763698    -0.32200
C811        C  0.15932626  0.67920345  0.53257281     0.21300
C812        C  0.16068933  0.67536191  0.56327144     0.03500
C813        C  0.13484898  0.67637317  0.58047116    -0.21900
C814        C  0.10782661  0.68172990  0.56560738     0.12600
S815        S  0.07169628  0.69431150  0.52161433    -0.05600
C816        C  0.05905607  0.69242620  0.55781485    -0.09000
C817        C  0.08067492  0.68509422  0.57875286    -0.25600
S818        S  0.19571439  0.66943318  0.57714732    -0.02800
C819        C  0.20870192  0.67206066  0.54118730    -0.16300
C820        C  0.18682217  0.67738037  0.51979987    -0.14300
H821        H  0.13134436  0.68762803  0.49369043     0.21100
H822        H  0.13581065  0.67357044  0.60447807     0.17100
H823        H  0.07701690  0.68385662  0.60260391     0.19600
H824        H  0.19076758  0.67919500  0.49603431     0.13000
C825        C  0.04156216  0.85866150  0.62101155     0.16900
C826        C  0.05659617  0.88631804  0.61916837    -0.32200
C827        C  0.07584253  0.89453063  0.64292425     0.21300
C828        C  0.07981907  0.87584760  0.66724910     0.03500
C829        C  0.06445987  0.84864879  0.66932284    -0.21900
C830        C  0.04530976  0.84049974  0.64573016     0.12600
S831        S  0.01864096  0.84341364  0.59401062    -0.05600
C832        C  0.01386293  0.81234808  0.61640379    -0.09000
C833        C  0.02940487  0.81427058  0.64335844    -0.25600
S834        S  0.10507800  0.88850510  0.69298293    -0.02800
C835        C  0.11045284  0.91977693  0.67130172    -0.16300
C836        C  0.09316354  0.92008081  0.64527728    -0.14300
H837        H  0.05381886  0.90053213  0.59984281     0.21100
H838        H  0.06774344  0.83413130  0.68835417     0.17100
H839        H  0.02990952  0.79681425  0.66002354     0.19600
H840        H  0.09375079  0.93759936  0.62870443     0.13000
C841        C  0.53356145  0.65763580  0.34053487     0.16900
C842        C  0.55550156  0.64462679  0.32244518    -0.32200
C843        C  0.56461768  0.61524394  0.32882197     0.21300
C844        C  0.55209059  0.59920307  0.35189128     0.03500
C845        C  0.52998751  0.61221011  0.36998925    -0.21900
C846        C  0.52122090  0.64188396  0.36391592     0.12600
S847        S  0.52110145  0.69369697  0.33752277    -0.05600
C848        C  0.49925256  0.68795902  0.36841897    -0.09000
C849        C  0.50149512  0.65918892  0.38002310    -0.25600
S850        S  0.56684450  0.56397303  0.35613130    -0.02800
C851        C  0.59050322  0.57117265  0.32683527    -0.16300
C852        C  0.58655863  0.59936048  0.31446063    -0.14300
H853        H  0.56555695  0.65715088  0.30455824     0.21100
H854        H  0.52051709  0.59997599  0.38839395     0.17100
H855        H  0.49028569  0.65173048  0.39993991     0.19600
H856        H  0.59935700  0.60796539  0.29604252     0.13000
C857        C  0.86408822  0.91561675  0.38690904     0.16900
C858        C  0.88580963  0.92849163  0.36890920    -0.32200
C859        C  0.87733896  0.95235209  0.35049019     0.21300
C860        C  0.84851448  0.96332864  0.35009850     0.03500
C861        C  0.82664699  0.95053594  0.36838215    -0.21900
C862        C  0.83511789  0.92630617  0.38667906     0.12600
S863        S  0.87016518  0.88583501  0.40993247    -0.05600
C864        C  0.83333450  0.88747271  0.41943180    -0.09000
C865        C  0.81724014  0.91013841  0.40549380    -0.25600
S866        S  0.84289473  0.99165376  0.32481540    -0.02800
C867        C  0.87970476  0.98824698  0.31455341    -0.16300
C868        C  0.89518551  0.96651622  0.33038115    -0.14300
H869        H  0.90832843  0.91988432  0.36885508     0.21100
H870        H  0.80397673  0.95871594  0.36795613     0.17100
H871        H  0.79379901  0.91438694  0.40882708     0.19600
H872        H  0.91819201  0.96055089  0.32657001     0.13000
C873        C  0.60980873  0.76508892  0.44983168     0.16900
C874        C  0.63995344  0.75657346  0.44962497    -0.32200
C875        C  0.66121166  0.77918183  0.45399218     0.21300
C876        C  0.65255457  0.80869942  0.45836050     0.03500
C877        C  0.62268918  0.81709670  0.45853808    -0.21900
C878        C  0.60161912  0.79473445  0.45412859     0.12600
S879        S  0.58036558  0.74164687  0.44433034    -0.05600
C880        C  0.55713307  0.77231724  0.44772308    -0.09000
C881        C  0.57156871  0.79903092  0.45286383    -0.25600
S882        S  0.68081983  0.83304233  0.46361818    -0.02800
C883        C  0.70509626  0.80349018  0.45987987    -0.16300
C884        C  0.69168517  0.77594697  0.45489975    -0.14300
H885        H  0.64649853  0.73349088  0.44613006     0.21100
H886        H  0.61614451  0.84020622  0.46189234     0.17100
H887        H  0.56069115  0.82060155  0.45483786     0.19600
H888        H  0.70343759  0.75488809  0.45259496     0.13000
C889        C  0.18201449  0.10973654  0.44441949     0.16900
C890        C  0.16788883  0.12110503  0.41908526    -0.32200
C891        C  0.13707243  0.12428981  0.41979684     0.21300
C892        C  0.12054969  0.11540511  0.44416138     0.03500
C893        C  0.13469698  0.10265938  0.46931924    -0.21900
C894        C  0.16596660  0.10051681  0.46904658     0.12600
S895        S  0.21945434  0.10924707  0.44902468    -0.05600
C896        C  0.21393259  0.09691011  0.48473040    -0.09000
C897        C  0.18444694  0.09225514  0.49232595    -0.25600
S898        S  0.08341550  0.12404939  0.44094477    -0.02800
C899        C  0.09085499  0.14027127  0.40681809    -0.16300
C900        C  0.12029002  0.13821407  0.39846846    -0.14300
H901        H  0.18060928  0.12894129  0.40025827     0.21100
H902        H  0.12212044  0.09633123  0.48879661     0.17100
H903        H  0.17700214  0.08508693  0.51407890     0.19600
H904        H  0.12926489  0.14748244  0.37814958     0.13000
C905        C  0.46032682  0.09640192  0.16739640     0.16900
C906        C  0.48278306  0.11769321  0.17126227    -0.32200
C907        C  0.49685165  0.12835627  0.14564924     0.21300
C908        C  0.48918119  0.11796637  0.11739249     0.03500
C909        C  0.46715710  0.09604210  0.11356583    -0.21900
C910        C  0.45277532  0.08562972  0.13923327     0.12600
S911        S  0.43916796  0.08277229  0.19555129    -0.05600
C912        C  0.41994995  0.06199766  0.16933459    -0.09000
C913        C  0.42969373  0.06553464  0.14021405    -0.25600
S914        S  0.50642274  0.13634996  0.08902924    -0.02800
C915        C  0.52376407  0.15857998  0.11550742    -0.16300
C916        C  0.51700432  0.15127103  0.14474018    -0.14300
H917        H  0.48824762  0.12644373  0.19323251     0.21100
H918        H  0.46071836  0.08831519  0.09148318     0.17100
H919        H  0.41995333  0.05465490  0.12083369     0.19600
H920        H  0.52447745  0.16370146  0.16421206     0.13000
C921        C  0.32125256  0.03236775  0.39477374     0.16900
C922        C  0.31566717  0.01639498  0.36829380    -0.32200
C923        C  0.32248228  0.03019424  0.34115130     0.21300
C924        C  0.33469462  0.05856684  0.34028380     0.03500
C925        C  0.34036672  0.07460056  0.36685334    -0.21900
C926        C  0.33315561  0.06088851  0.39408970     0.12600
S927        S  0.31291366  0.01997247  0.42974810    -0.05600
C928        C  0.32497884  0.05374232  0.44387429    -0.09000
C929        C  0.33537036  0.07329372  0.42225805    -0.25600
S930        S  0.34200805  0.07084584  0.30489195    -0.02800
C931        C  0.32831232  0.03741791  0.29122246    -0.16300
C932        C  0.31870312  0.01804015  0.31317968    -0.14300
H933        H  0.30607466  0.99424315  0.36881248     0.21100
H934        H  0.34969342  0.09686660  0.36630886     0.17100
H935        H  0.34288695  0.09585427  0.42676927     0.19600
H936        H  0.31025667  0.99576055  0.30895604     0.13000
C937        C  0.38858586  0.88927239  0.28269971     0.16900
C938        C  0.38595552  0.86516682  0.30231899    -0.32200
C939        C  0.40943080  0.85977946  0.32232742     0.21300
C940        C  0.43432716  0.87789516  0.32323145     0.03500
C941        C  0.43687698  0.90228944  0.30370505    -0.21900
C942        C  0.41351296  0.90735843  0.28324717     0.12600
S943        S  0.36219266  0.89946190  0.25712818    -0.05600
C944        C  0.38483122  0.92847952  0.24676248    -0.09000
C945        C  0.41155936  0.92988295  0.26248533    -0.25600
S946        S  0.46067903  0.86674290  0.34870732    -0.02800
C947        C  0.43812123  0.83698080  0.35757382    -0.16300
C948        C  0.41141838  0.83645619  0.34200382    -0.14300
H949        H  0.36652500  0.85098993  0.30179516     0.21100
H950        H  0.45632430  0.91644529  0.30419307     0.17100
H951        H  0.42802787  0.94721891  0.25982109     0.19600
H952        H  0.39461925  0.81940181  0.34438395     0.13000
C953        C  0.65649223  0.34389579  0.53022875     0.16900
C954        C  0.63372861  0.32554251  0.54071652    -0.32200
C955        C  0.61993764  0.33373787  0.56756127     0.21300
C956        C  0.62857541  0.35892807  0.58355054     0.03500
C957        C  0.65116322  0.37751187  0.57289395    -0.21900
C958        C  0.66477742  0.36943879  0.54583176     0.12600
S959        S  0.67661908  0.33719661  0.49860543    -0.05600
C960        C  0.69615694  0.36942745  0.50610700    -0.09000
C961        C  0.68740853  0.38428482  0.53197982    -0.25600
S962        S  0.60991775  0.36402629  0.61639807    -0.02800
C963        C  0.59001265  0.33212021  0.60815915    -0.16300
C964        C  0.59765835  0.31847476  0.58141424    -0.14300
H965        H  0.62720927  0.30556641  0.52859706     0.21100
H966        H  0.65800955  0.39722499  0.58526702     0.17100
H967        H  0.69761392  0.40448071  0.54061731     0.19600
H968        H  0.58794125  0.29797877  0.57292168     0.13000
C969        C  0.41680746  0.22879161  0.59381542     0.16900
C970        C  0.40393500  0.21184054  0.57070499    -0.32200
C971        C  0.38210155  0.19102198  0.57835510     0.21300
C972        C  0.37280171  0.18782802  0.60763239     0.03500
C973        C  0.38590323  0.20459209  0.63083004    -0.21900
C974        C  0.40831974  0.22488876  0.62324608     0.12600
S975        S  0.44507303  0.25362640  0.58924021    -0.05600
C976        C  0.44627048  0.25819371  0.62745510    -0.09000
C977        C  0.42521763  0.24168163  0.64270445    -0.25600
S978        S  0.34567909  0.16159888  0.61212931    -0.02800
C979        C  0.34766974  0.15421261  0.57438289    -0.16300
C980        C  0.36806114  0.17145862  0.55923603    -0.14300
H981        H  0.41114952  0.21426146  0.54782815     0.21100
H982        H  0.37933950  0.20150969  0.65382767     0.17100
H983        H  0.42340918  0.24080523  0.66680062     0.19600
H984        H  0.37236155  0.16973777  0.53551325     0.13000
C985        C  0.68068110  0.89346359  0.62136390     0.16900
C986        C  0.68842663  0.88140861  0.59384840    -0.32200
C987        C  0.71775393  0.87238020  0.59007032     0.21300
C988        C  0.73882979  0.87448438  0.61269732     0.03500
C989        C  0.73089127  0.88630119  0.64082609    -0.21900
C990        C  0.70122917  0.89596615  0.64450519     0.12600
S991        S  0.64639780  0.90714374  0.62877931    -0.05600
C992        C  0.65923490  0.91659229  0.66373246    -0.09000
C993        C  0.68883353  0.90927242  0.66932440    -0.25600
S994        S  0.77374524  0.86299333  0.60194042    -0.02800
C995        C  0.75920465  0.85646161  0.56669297    -0.16300
C996        C  0.72915738  0.86204756  0.56407348    -0.14300
H997        H  0.67237557  0.87989641  0.57575548     0.21100
H998        H  0.74711823  0.88851514  0.65865946     0.17100
H999        H  0.70062262  0.91391576  0.68999396     0.19600
H1000       H  0.71623652  0.85929675  0.54371347     0.13000
C1001       C  0.57351421  0.14910178  0.67315942     0.16900
C1002       C  0.58939475  0.12223995  0.67033445    -0.32200
C1003       C  0.57390247  0.09547116  0.67465454     0.21300
C1004       C  0.54372086  0.09528443  0.68055407     0.03500
C1005       C  0.52764094  0.12215525  0.68251417    -0.21900
C1006       C  0.54339594  0.14897210  0.67937048     0.12600
S1007       S  0.58868852  0.18400057  0.67086037    -0.05600
C1008       C  0.55429260  0.19854077  0.67931922    -0.09000
C1009       C  0.53226934  0.17730989  0.68299535    -0.25600
S1010       S  0.52988830  0.06068690  0.68866435    -0.02800
C1011       C  0.56531464  0.04651450  0.68483825    -0.16300
C1012       C  0.58625063  0.06751618  0.67654441    -0.14300
H1013       H  0.61307992  0.12224341  0.66633560     0.21100
H1014       H  0.50422827  0.12221791  0.68785120     0.17100
H1015       H  0.50923139  0.18239078  0.68772298     0.19600
H1016       H  0.60979815  0.06300993  0.67443365     0.13000
C1017       C  0.64328783  0.02906711  0.84805456     0.16900
C1018       C  0.64882613  0.03718440  0.87790900    -0.32200
C1019       C  0.66448911  0.06377695  0.88324207     0.21300
C1020       C  0.67410452  0.08142654  0.85985289     0.03500
C1021       C  0.66869872  0.07328695  0.83012334    -0.21900
C1022       C  0.65319810  0.04673944  0.82483292     0.12600
S1023       S  0.62442139  0.99788187  0.83666443    -0.05600
C1024       C  0.63041566  0.00870159  0.80034807    -0.09000
C1025       C  0.64597783  0.03513510  0.79744796    -0.25600
S1026       S  0.69246598  0.11284879  0.87060005    -0.02800
C1027       C  0.68721136  0.10230463  0.90710120    -0.16300
C1028       C  0.67205319  0.07566556  0.91060584    -0.14300
H1029       H  0.64122330  0.02344046  0.89613357     0.21100
H1030       H  0.67625753  0.08706461  0.81189081     0.17100
H1031       H  0.65150605  0.04545662  0.77637983     0.19600
H1032       H  0.66685805  0.06563349  0.93188676     0.13000
C1033       C  0.06210857  0.18388971  0.16327557     0.16900
C1034       C  0.08237717  0.20377197  0.15034367    -0.32200
C1035       C  0.08475317  0.20390005  0.11903060     0.21300
C1036       C  0.06749957  0.18512442  0.10142455     0.03500
C1037       C  0.04694383  0.16545196  0.11434118    -0.21900
C1038       C  0.04471751  0.16520560  0.14569909     0.12600
S1039       S  0.05788227  0.17874597  0.20079710    -0.05600
C1040       C  0.03253069  0.15081270  0.19309347    -0.09000
C1041       C  0.02744551  0.14640765  0.16263704    -0.25600
S1042       S  0.07480165  0.18758418  0.06407773    -0.02800
C1043       C  0.10151307  0.21430236  0.07195446    -0.16300
C1044       C  0.10412362  0.22077080  0.10234175    -0.14300
H1045       H  0.09625808  0.21800284  0.16416740     0.21100
H1046       H  0.03379761  0.15047277  0.10057410     0.17100
H1047       H  0.01332780  0.12913581  0.15331389     0.19600
H1048       H  0.12003233  0.23622248  0.11191614     0.13000
C1049       C  0.20766128  0.13574804  0.03611964     0.16900
C1050       C  0.23030988  0.11769929  0.04797875    -0.32200
C1051       C  0.22260943  0.08917745  0.05790820     0.21300
C1052       C  0.19392347  0.07854282  0.05470264     0.03500
C1053       C  0.17120915  0.09657718  0.04262708    -0.21900
C1054       C  0.17864415  0.12575251  0.03404272     0.12600
S1055       S  0.21218223  0.17202961  0.02640371    -0.05600
C1056       C  0.17421112  0.17483949  0.02081758    -0.09000
C1057       C  0.15928145  0.14804310  0.02519596    -0.25600
S1058       S  0.18898667  0.04382641  0.06920571    -0.02800
C1059       C  0.22539567  0.04441186  0.08181496    -0.16300
C1060       C  0.24076937  0.06977643  0.07328747    -0.14300
H1061       H  0.25266885  0.12614397  0.05079559     0.21100
H1062       H  0.14851164  0.08873092  0.04138217     0.17100
H1063       H  0.13546095  0.14526166  0.02382215     0.19600
H1064       H  0.26364746  0.07455060  0.07903724     0.13000
C1065       C  0.10837446  0.06115861  0.18941503     0.16900
C1066       C  0.12533241  0.05321702  0.16434834    -0.32200
C1067       C  0.14705720  0.03084142  0.16800799     0.21300
C1068       C  0.15172261  0.01709526  0.19529270     0.03500
C1069       C  0.13432524  0.02459498  0.22016881    -0.21900
C1070       C  0.11256970  0.04693507  0.21657519     0.12600
S1071       S  0.08096702  0.08766257  0.18964392    -0.05600
C1072       C  0.07470633  0.07927120  0.22663229    -0.09000
C1073       C  0.09309803  0.05704119  0.23797004    -0.25600
S1074       S  0.18119132  0.99289184  0.19582399    -0.02800
C1075       C  0.18756386  0.00146520  0.15886015    -0.16300
C1076       C  0.16710416  0.02153501  0.14679575    -0.14300
H1077       H  0.12209587  0.06415365  0.14335091     0.21100
H1078       H  0.13794952  0.01392758  0.24143307     0.17100
H1079       H  0.09161960  0.04812224  0.26030259     0.19600
H1080       H  0.16811472  0.03039152  0.12552817     0.13000
C1081       C  0.71761218  0.37591997  0.91870297     0.16900
C1082       C  0.71325238  0.34530453  0.92418285    -0.32200
C1083       C  0.69100043  0.33726393  0.94455951     0.21300
C1084       C  0.67372263  0.35869954  0.95871321     0.03500
C1085       C  0.67795393  0.38922154  0.95315476    -0.21900
C1086       C  0.70035843  0.39721297  0.93306013     0.12600
S1087       S  0.74375451  0.39067310  0.89518024    -0.05600
C1088       C  0.73180022  0.42590783  0.90545208    -0.09000
C1089       C  0.70830145  0.42569134  0.92554828    -0.25600
S1090       S  0.64797330  0.34441836  0.98260538    -0.02800
C1091       C  0.66049261  0.30897393  0.97354019    -0.16300
C1092       C  0.68347279  0.30874573  0.95292471    -0.14300
H1093       H  0.72672689  0.32848361  0.91319543     0.21100
H1094       H  0.66454751  0.40605608  0.96423383     0.17100
H1095       H  0.69745252  0.44551994  0.93429952     0.19600
H1096       H  0.69424874  0.28879175  0.94444655     0.13000
C1097       C  0.64857280  0.44700351  0.83364618     0.16900
C1098       C  0.62154124  0.43190556  0.83394052    -0.32200
C1099       C  0.60792163  0.42568205  0.80649085     0.21300
C1100       C  0.62038909  0.43428662  0.77965324     0.03500
C1101       C  0.64791710  0.44913654  0.77930210    -0.21900
C1102       C  0.66178547  0.45516721  0.80700827     0.12600
S1103       S  0.66790793  0.45654981  0.86496889    -0.05600
C1104       C  0.69456269  0.47132824  0.84226703    -0.09000
C1105       C  0.68866935  0.46903150  0.81185932    -0.25600
S1106       S  0.59896276  0.42556322  0.74893438    -0.02800
C1107       C  0.57355955  0.40994229  0.77283825    -0.16300
C1108       C  0.58134524  0.41155641  0.80268807    -0.14300
H1109       H  0.61143845  0.42537886  0.85478601     0.21100
H1110       H  0.65795485  0.45579371  0.75847639     0.17100
H1111       H  0.70320409  0.47692077  0.79445923     0.19600
H1112       H  0.56779215  0.40342110  0.82078175     0.13000
C1113       C  0.54344575  0.32332784  0.86913186     0.16900
C1114       C  0.54791775  0.31593126  0.89919271    -0.32200
C1115       C  0.56776734  0.29259830  0.90577839     0.21300
C1116       C  0.58269350  0.27714363  0.88353572     0.03500
C1117       C  0.57796616  0.28437606  0.85326150    -0.21900
C1118       C  0.55807727  0.30793862  0.84663579     0.12600
S1119       S  0.52086719  0.35155753  0.85690398    -0.05600
C1120       C  0.53102356  0.34288541  0.82079843    -0.09000
C1121       C  0.55105840  0.31909632  0.81880402    -0.25600
S1122       S  0.60725772  0.25073653  0.89686604    -0.02800
C1123       C  0.59681945  0.26045144  0.93266104    -0.16300
C1124       C  0.57559213  0.28307618  0.93375338    -0.14300
H1125       H  0.53668814  0.32815995  0.91678814     0.21100
H1126       H  0.58965884  0.27256028  0.83570708     0.17100
H1127       H  0.56010802  0.31037213  0.79817339     0.19600
H1128       H  0.56711491  0.29296026  0.95415255     0.13000
C1129       C  0.78889931  0.58958527  0.44471766     0.16900
C1130       C  0.78886292  0.61520857  0.46307691    -0.32200
C1131       C  0.81636449  0.62839724  0.47023544     0.21300
C1132       C  0.84278200  0.61648795  0.45983931     0.03500
C1133       C  0.84287728  0.59045466  0.44200017    -0.21900
C1134       C  0.81534517  0.57739328  0.43462594     0.12600
S1135       S  0.75781031  0.57157746  0.43167501    -0.05600
C1136       C  0.78058535  0.54698095  0.41262555    -0.09000
C1137       C  0.81073026  0.55286875  0.41644414    -0.25600
S1138       S  0.87341942  0.63748589  0.46881459    -0.02800
C1139       C  0.85048392  0.66306786  0.48645220    -0.16300
C1140       C  0.82064240  0.65462966  0.48586538    -0.14300
H1141       H  0.76820071  0.62501771  0.47067846     0.21100
H1142       H  0.86346245  0.58129301  0.43346954     0.17100
H1143       H  0.82842138  0.54050729  0.40565102     0.19600
H1144       H  0.80255332  0.66763938  0.49507947     0.13000
C1145       C  0.84957661  0.54714449  0.31504817     0.16900
C1146       C  0.86385694  0.57066192  0.30050197    -0.32200
C1147       C  0.89391616  0.56702094  0.29348550     0.21300
C1148       C  0.90929222  0.54114208  0.30090691     0.03500
C1149       C  0.89485671  0.51733296  0.31527817    -0.21900
C1150       C  0.86456432  0.52094922  0.32222360     0.12600
S1151       S  0.81322918  0.54773995  0.32513750    -0.05600
C1152       C  0.81767240  0.51206325  0.33894319    -0.09000
C1153       C  0.84630125  0.50062680  0.33621326    -0.25600
S1154       S  0.94623716  0.54219598  0.29201602    -0.02800
C1155       C  0.94061006  0.57757596  0.27769403    -0.16300
C1156       C  0.91161499  0.58779043  0.27989840    -0.14300
H1157       H  0.85201750  0.59105762  0.29500178     0.21100
H1158       H  0.90677067  0.49706213  0.32104289     0.17100
H1159       H  0.85317753  0.47860680  0.34352610     0.19600
H1160       H  0.90416567  0.60979070  0.27305633     0.13000
C1161       C  0.97270622  0.66245431  0.37148422     0.16900
C1162       C  0.96745698  0.66573379  0.40230521    -0.32200
C1163       C  0.94594532  0.68685967  0.41128721     0.21300
C1164       C  0.93084580  0.70418177  0.39051950     0.03500
C1165       C  0.93644755  0.70131945  0.35996697    -0.21900
C1166       C  0.95753220  0.68006227  0.35102993     0.12600
S1167       S  0.99570856  0.63632016  0.35533766    -0.05600
C1168       C  0.98481766  0.64960316  0.32079818    -0.09000
C1169       C  0.96448989  0.67300725  0.32219252    -0.25600
S1170       S  0.90459640  0.72727689  0.40525522    -0.02800
C1171       C  0.91357918  0.71355886  0.44014330    -0.16300
C1172       C  0.93619033  0.69221637  0.43991203    -0.14300
H1173       H  0.97890248  0.65181532  0.41845459     0.21100
H1174       H  0.92425217  0.71452832  0.34374797     0.17100
H1175       H  0.95410205  0.68346872  0.30298876     0.19600
H1176       H  0.94470679  0.68073049  0.45939905     0.13000
C1177       C  0.43792928  0.77961634  0.61530108     0.16900
C1178       C  0.44929169  0.78062239  0.64445353    -0.32200
C1179       C  0.46795807  0.80442591  0.65223712     0.21300
C1180       C  0.47509182  0.82654092  0.63207152     0.03500
C1181       C  0.46369171  0.82554839  0.60264318    -0.21900
C1182       C  0.44490514  0.80149007  0.59478153     0.12600
S1183       S  0.41471310  0.75251440  0.60201910    -0.05600
C1184       C  0.41406515  0.77036719  0.56795800    -0.09000
C1185       C  0.43124112  0.79635230  0.56754817    -0.25600
S1186       S  0.49688072  0.85431808  0.64716607    -0.02800
C1187       C  0.49606111  0.83588236  0.68106009    -0.16300
C1188       C  0.47994261  0.80944410  0.67993352    -0.14300
H1189       H  0.44357177  0.76364155  0.66055572     0.21100
H1190       H  0.46891186  0.84287532  0.58674148     0.17100
H1191       H  0.43381126  0.81086568  0.54852072     0.19600
H1192       H  0.47543633  0.79520469  0.69879639     0.13000
C1193       C  0.31282945  0.90659821  0.54899912     0.16900
C1194       C  0.33214661  0.88993268  0.53067514    -0.32200
C1195       C  0.32997411  0.85856679  0.53142295     0.21300
C1196       C  0.30885546  0.84477222  0.54895079     0.03500
C1197       C  0.28939782  0.86135969  0.56681136    -0.21900
C1198       C  0.29208819  0.89247107  0.56668010     0.12600
S1199       S  0.31420676  0.94441644  0.55434868    -0.05600
C1200       C  0.28716091  0.94093210  0.58132012    -0.09000
C1201       C  0.27709254  0.91196357  0.58490040    -0.25600
S1202       S  0.31003749  0.80687326  0.54803171    -0.02800
C1203       C  0.33959038  0.80901801  0.52380738    -0.16300
C1204       C  0.34797818  0.83806490  0.51702791    -0.14300
H1205       H  0.34888049  0.90085805  0.51741300     0.21100
H1206       H  0.27354949  0.85037775  0.58110072     0.17100
H1207       H  0.26128950  0.90504666  0.60157413     0.19600
H1208       H  0.36631275  0.84383335  0.50269177     0.13000
C1209       C  0.38462872  0.95328755  0.66161718     0.16900
C1210       C  0.41104332  0.93670440  0.66119733    -0.32200
C1211       C  0.42453048  0.93020794  0.68871410     0.21300
C1212       C  0.41263937  0.94011968  0.71548827     0.03500
C1213       C  0.38656243  0.95735312  0.71584265    -0.21900
C1214       C  0.37270348  0.96337851  0.68831201     0.12600
S1215       S  0.36339037  0.96088985  0.63090926    -0.05600
C1216       C  0.33774194  0.97756070  0.65419300    -0.09000
C1217       C  0.34593182  0.97753708  0.68418986    -0.25600
S1218       S  0.43118894  0.92767161  0.74651879    -0.02800
C1219       C  0.45509759  0.90887093  0.72304526    -0.16300
C1220       C  0.44901226  0.91258950  0.69290781    -0.14300
H1221       H  0.42007605  0.92825511  0.64042408     0.21100
H1222       H  0.37685819  0.96470361  0.73670329     0.17100
H1223       H  0.33260846  0.98640749  0.70222730     0.19600
H1224       H  0.46095757  0.90188353  0.67490534     0.13000
loop_ 
_geom_bond_atom_site_label_1 
_geom_bond_atom_site_label_2 
_geom_bond_distance 
_geom_bond_site_symmetry_2 
_ccdc_geom_bond_type 
C1            C2   1.548       .  S
C1            C7   1.542   1_565  S
C1            C5   1.536       .  S
C1          C315   1.531       .  S
C2            H9   1.085       .  S
C2            C3   1.371       .  D
C3            C4   1.531       .  S
C3         C1200   1.485       .  S
C4            C8   1.534   1_565  S
C4            C6   1.539       .  S
C4           H10   1.108       .  S
C5           H11   1.085       .  S
C5            C6   1.369       .  D
C6         C1216   1.485       .  S
C7           H12   1.086       .  S
C7            C8   1.375       .  D
C8          C185   1.485       .  S
C13          C14   1.547       .  S
C13          C19   1.530       .  S
C13          C17   1.526       .  S
C13         C237   1.527       .  S
C14          H21   1.085       .  S
C14          C15   1.381       .  D
C15          C16   1.544       .  S
C15        C1184   1.500       .  S
C16          C20   1.553       .  S
C16          C18   1.548       .  S
C16          H22   1.107       .  S
C17          H23   1.087       .  S
C17          C18   1.365       .  D
C18        C1203   1.487       .  S
C19          H24   1.086       .  S
C19          C20   1.367       .  D
C20         C211   1.489       .  S
C25          C26   1.546       .  S
C25          C31   1.540       .  S
C25          C29   1.530       .  S
C25         C434   1.519       .  S
C26          H33   1.086       .  S
C26          C27   1.367       .  D
C27          C28   1.531       .  S
C27        C1219   1.476       .  S
C28          C32   1.546       .  S
C28          C30   1.541       .  S
C28          H34   1.109       .  S
C29          H35   1.085       .  S
C29          C30   1.367       .  D
C30        C1187   1.496       .  S
C31          H36   1.086       .  S
C31          C32   1.374       .  D
C32         C146   1.488       .  S
C37          C38   1.549       .  S
C37          C43   1.533   1_655  S
C37          C41   1.528       .  S
C37         C369   1.522       .  S
C38          H45   1.086       .  S
C38          C39   1.374       .  D
C39          C40   1.537       .  S
C39        C1155   1.484       .  S
C40          C44   1.547   1_655  S
C40          C42   1.548       .  S
C40          H46   1.111       .  S
C41          H47   1.087       .  S
C41          C42   1.366       .  D
C42        C1168   1.487       .  S
C43          H48   1.086       .  S
C43          C44   1.370       .  D
C44         C263   1.490       .  S
C49          C50   1.548       .  S
C49          C55   1.537       .  S
C49          C53   1.533       .  S
C49         C393   1.530       .  S
C50          H57   1.086       .  S
C50          C51   1.375       .  D
C51          C52   1.542       .  S
C51        C1136   1.494       .  S
C52          C56   1.558       .  S
C52          C54   1.546       .  S
C52          H58   1.110       .  S
C53          H59   1.087       .  S
C53          C54   1.367       .  D
C54        C1152   1.487       .  S
C55          H60   1.086       .  S
C55          C56   1.371       .  D
C56         C289   1.501       .  S
C61          C62   1.534       .  S
C61          C67   1.526       .  S
C61          C65   1.534       .  S
C61         C198   1.508       .  S
C62          H69   1.086       .  S
C62          C63   1.368       .  D
C63          C64   1.542       .  S
C63        C1171   1.488       .  S
C64          C68   1.562       .  S
C64          C66   1.558       .  S
C64          H70   1.108       .  S
C65          H71   1.084       .  S
C65          C66   1.370       .  D
C66        C1139   1.504       .  S
C67          H72   1.086       .  S
C67          C68   1.365       .  D
C68         C224   1.494       .  S
C73          C74   1.546       .  S
C73          C79   1.530       .  S
C73          C77   1.536       .  S
C73         C445   1.521       .  S
C74          H81   1.085       .  S
C74          C75   1.374       .  D
C75          C76   1.540       .  S
C75        C1120   1.492       .  S
C76          C80   1.544       .  S
C76          C78   1.542       .  S
C76          H82   1.110       .  S
C77          H83   1.087       .  S
C77          C78   1.367       .  D
C78        C1107   1.474       .  S
C79          H84   1.086       .  S
C79          C80   1.366       .  D
C80         C159   1.481       .  S
C85          C86   1.537       .  S
C85          C91   1.531       .  S
C85          C89   1.533       .  S
C85         C380   1.513       .  S
C86          H93   1.087       .  S
C86          C87   1.368       .  D
C87          C88   1.538       .  S
C87        C1104   1.470       .  S
C88          C92   1.560       .  S
C88          C90   1.552       .  S
C88          H94   1.111       .  S
C89          H95   1.086       .  S
C89          C90   1.362       .  D
C90        C1088   1.495       .  S
C91          H96   1.086       .  S
C91          C92   1.371       .  D
C92         C276   1.496       .  S
C97          C98   1.545       .  S
C97         C103   1.527       .  S
C97         C101   1.530   1_554  S
C97         C406   1.512       .  S
C98         H105   1.086       .  S
C98          C99   1.375   1_554  D
C99         C100   1.543       .  S
C99        C1091   1.491       .  S
C100        C104   1.555       .  S
C100        C102   1.548       .  S
C100        H106   1.109       .  S
C101        H107   1.087       .  S
C101        C102   1.367       .  D
C102       C1123   1.489       .  S
C103        H108   1.086       .  S
C103        C104   1.362   1_554  D
C104        C341   1.489       .  S
C109        C110   1.545   1_565  S
C109        C115   1.538       .  S
C109        C113   1.531       .  S
C109        C172   1.521   1_565  S
C110        H117   1.084       .  S
C110        C111   1.376       .  D
C111        C112   1.538   1_545  S
C111       C1059   1.493       .  S
C112        C116   1.547       .  S
C112        C114   1.544       .  S
C112        H118   1.110       .  S
C113        H119   1.084       .  S
C113        C114   1.363       .  D
C114       C1075   1.488   1_565  S
C115        H120   1.086       .  S
C115        C116   1.370       .  D
C116        C302   1.485       .  S
C121        C122   1.555       .  S
C121        C127   1.534   1_554  S
C121        C125   1.524       .  S
C121        C421   1.527       .  S
C122        H129   1.085       .  S
C122        C123   1.382       .  D
C123        C124   1.543       .  S
C123       C1043   1.503       .  S
C124        C128   1.550   1_554  S
C124        C126   1.550       .  S
C124        H130   1.107       .  S
C125        H131   1.085       .  S
C125        C126   1.365       .  D
C126       C1056   1.495       .  S
C127        H132   1.086       .  S
C127        C128   1.367       .  D
C128        C328   1.489       .  S
C133        C134   1.554       .  S
C133        C139   1.528       .  S
C133        C137   1.533   1_655  S
C133        C354   1.518       .  S
C134        H141   1.085       .  S
C134        C135   1.376   1_655  D
C135        C136   1.540       .  S
C135       C1040   1.496       .  S
C136        C140   1.553       .  S
C136        C138   1.546       .  S
C136        H142   1.110       .  S
C137        H143   1.087       .  S
C137        C138   1.365       .  D
C138       C1072   1.481       .  S
C139        H144   1.086       .  S
C139        C140   1.364   1_655  D
C140        C250   1.490       .  S
O145        C148   1.262       .  A
O145       Cd150   2.445   1_545  S
C146        O155   1.267       .  A
C146        O151   1.267       .  A
O147        C153   1.265       .  A
O147       Cd150   2.513       .  S
C148        O156   1.268   1_545  A
C148       C1011   1.475       .  S
C149        O154   1.262       .  A
C149        O152   1.265       .  A
C149       C1024   1.467   1_565  S
Cd150       O157   2.408       .  S
Cd150       O156   2.512       .  S
Cd150       O155   2.505       .  S
Cd150       O151   2.472       .  S
Cd150       O154   2.441       .  S
Cd150       O152   2.486       .  S
C153        O157   1.262       .  A
C153        C992   1.466       .  S
O158        C161   1.262       .  A
O158       Cd163   2.458       .  S
C159        O168   1.268       .  A
C159        O164   1.267       .  A
O160        C166   1.265       .  A
O160       Cd163   2.484       .  S
C161        O169   1.263       .  A
C161       C1008   1.470       .  S
C162        O167   1.264       .  A
C162        O165   1.267       .  A
C162        C976   1.474       .  S
Cd163       O170   2.468       .  S
Cd163       O169   2.486       .  S
Cd163       O168   2.497       .  S
Cd163       O164   2.453       .  S
Cd163       O167   2.466       .  S
Cd163       O165   2.475       .  S
C166        O170   1.266       .  A
C166        C963   1.474       .  S
O171        C174   1.266       .  A
O171       Cd176   2.496       .  S
C172        O181   1.266   1_545  A
C172        O177   1.267       .  A
O173        C179   1.269       .  A
O173       Cd176   2.527       .  S
C174        O182   1.264       .  A
C174        C931   1.477       .  S
C175        O180   1.265       .  A
C175        O178   1.264       .  A
C175        C944   1.475       .  S
Cd176       O183   2.432       .  S
Cd176       O182   2.465       .  S
Cd176       O181   2.526   1_545  S
Cd176       O177   2.496       .  S
Cd176       O180   2.494   1_545  S
Cd176       O178   2.465   1_545  S
C179        O183   1.261       .  A
C179        C912   1.475       .  S
O184        C187   1.269       .  A
O184       Cd189   2.498       .  S
C185        O194   1.264       .  A
C185        O190   1.271       .  A
O186        C192   1.265       .  A
O186       Cd189   2.482       .  S
C187        O195   1.264       .  A
C187        C928   1.481       .  S
C188        O193   1.264       .  A
C188        O191   1.262       .  A
C188        C896   1.464       .  S
Cd189       O196   2.486       .  S
Cd189       O195   2.484       .  S
Cd189       O194   2.470       .  S
Cd189       O190   2.488       .  S
Cd189       O193   2.435       .  S
Cd189       O191   2.495       .  S
C192        O196   1.266       .  A
C192        C979   1.471       .  S
O197        C200   1.268       .  A
O197       Cd202   2.538       .  S
C198        O207   1.267       .  A
C198        O203   1.267       .  A
O199        C205   1.266       .  A
O199       Cd202   2.494       .  S
C200        O208   1.260       .  A
C200        C883   1.470       .  S
C201        O206   1.257       .  A
C201        O204   1.266       .  A
C201        C995   1.467       .  S
Cd202       O209   2.485       .  S
Cd202       O208   2.388       .  S
Cd202       O207   2.470       .  S
Cd202       O203   2.460       .  S
Cd202       O206   2.364       .  S
Cd202       O204   2.560       .  S
C205        O209   1.264       .  A
C205        C864   1.471       .  S
O210        C213   1.267       .  A
O210       Cd215   2.475       .  S
C211        O220   1.265       .  A
C211        O216   1.266       .  A
O212        C218   1.268       .  A
O212       Cd215   2.484       .  S
C213        O221   1.261       .  A
C213        C880   1.468       .  S
C214        O219   1.266       .  A
C214        O217   1.267       .  A
C214        C848   1.484       .  S
Cd215       O222   2.493       .  S
Cd215       O221   2.451       .  S
Cd215       O220   2.470       .  S
Cd215       O216   2.541       .  S
Cd215       O219   2.501       .  S
Cd215       O217   2.493       .  S
C218        O222   1.265       .  A
C218        C947   1.479       .  S
O223        C226   1.264       .  A
O223       Cd228   2.492   1_455  S
C224        O233   1.264       .  A
C224        O229   1.272       .  A
O225        C231   1.266       .  A
O225       Cd228   2.534       .  S
C226        O234   1.263       .  A
C226        C816   1.472       .  S
C227        O232   1.268       .  A
C227        O230   1.266       .  A
C227        C832   1.499   1_655  S
Cd228       O235   2.488       .  S
Cd228       O234   2.460   1_655  S
Cd228       O233   2.512       .  S
Cd228       O229   2.506       .  S
Cd228       O232   2.561       .  S
Cd228       O230   2.520       .  S
C231        O235   1.262       .  A
C231        C800   1.481       .  S
O236        C239   1.268       .  A
O236       Cd241   2.508       .  S
C237        O246   1.265       .  A
C237        O242   1.266       .  A
O238        C244   1.268       .  A
O238       Cd241   2.507       .  S
C239        O247   1.261       .  A
C239        C819   1.473       .  S
C240        O245   1.263       .  A
C240        O243   1.268       .  A
C240        C787   1.481       .  S
Cd241       O248   2.488       .  S
Cd241       O247   2.445       .  S
Cd241       O246   2.527       .  S
Cd241       O242   2.534       .  S
Cd241       O245   2.457       .  S
Cd241       O243   2.535       .  S
C244        O248   1.265       .  A
C244        C768   1.483       .  S
O249        C252   1.266       .  A
O249       Cd254   2.490       .  S
C250        O259   1.265       .  A
C250        O255   1.267       .  A
O251        C257   1.266       .  A
O251       Cd254   2.540       .  S
C252        O260   1.266       .  A
C252        C739   1.482       .  S
C253        O258   1.268       .  A
C253        O256   1.264   1_655  A
C253        C752   1.481       .  S
Cd254       O261   2.450       .  S
Cd254       O260   2.495       .  S
Cd254       O259   2.520       .  S
Cd254       O255   2.486       .  S
Cd254       O258   2.539   1_455  S
Cd254       O256   2.441       .  S
C257        O261   1.264       .  A
C257        C899   1.479       .  S
O262        C265   1.266       .  A
O262       Cd267   2.523       .  S
C263        O272   1.266       .  A
C263        O268   1.269       .  A
O264        C270   1.265       .  A
O264       Cd267   2.492       .  S
C265        O273   1.264       .  A
C265        C736   1.486       .  S
C266        O271   1.261       .  A
C266        O269   1.265       .  A
C266        C723   1.470       .  S
Cd267       O274   2.503       .  S
Cd267       O273   2.492       .  S
Cd267       O272   2.469       .  S
Cd267       O268   2.529       .  S
Cd267       O271   2.420       .  S
Cd267       O269   2.526       .  S
C270        O274   1.264       .  A
C270        C784   1.480       .  S
O275        C278   1.265       .  A
O275       Cd280   2.487       .  S
C276        O285   1.264       .  A
C276        O281   1.267       .  A
O277        C283   1.265       .  A
O277       Cd280   2.464       .  S
C278        O286   1.266       .  A
C278        C704   1.481       .  S
C279        O284   1.263       .  A
C279        O282   1.269       .  A
C279        C803   1.488       .  S
Cd280       O287   2.546       .  S
Cd280       O286   2.514       .  S
Cd280       O285   2.536       .  S
Cd280       O281   2.519       .  S
Cd280       O284   2.484       .  S
Cd280       O282   2.546       .  S
C283        O287   1.269       .  A
C283        C691   1.487       .  S
O288        C291   1.268       .  A
O288       Cd293   2.493       .  S
C289        O298   1.267       .  A
C289        O294   1.266       .  A
O290        C296   1.266       .  A
O290       Cd293   2.450       .  S
C291        O299   1.265       .  A
C291        C707   1.481       .  S
C292        O297   1.268       .  A
C292        O295   1.262       .  A
C292        C960   1.477       .  S
Cd293       O300   2.547       .  S
Cd293       O299   2.492       .  S
Cd293       O298   2.523       .  S
Cd293       O294   2.546       .  S
Cd293       O297   2.508       .  S
Cd293       O295   2.462       .  S
C296        O300   1.268       .  A
C296        C755   1.485       .  S
O301        C304   1.265       .  A
O301       Cd306   2.463   1_556  S
C302        O311   1.262       .  A
C302        O307   1.266       .  A
O303        C309   1.265       .  A
O303       Cd306   2.521       .  S
C304        O312   1.268       .  A
C304        C656   1.476       .  S
C305        O310   1.262   1_554  A
C305        O308   1.267       .  A
C305        C672   1.478   1_554  S
Cd306       O313   2.447       .  S
Cd306       O312   2.494   1_554  S
Cd306       O311   2.485       .  S
Cd306       O307   2.508       .  S
Cd306       O310   2.464   1_554  S
Cd306       O308   2.510       .  S
C309        O313   1.264       .  A
C309        C643   1.475       .  S
O314        C317   1.264       .  A
O314       Cd319   2.469       .  S
C315        O324   1.265   1_565  A
C315        O320   1.263       .  A
O316        C322   1.274       .  A
O316       Cd319   2.562       .  S
C317        O325   1.264       .  A
C317        C659   1.476       .  S
C318        O323   1.271       .  A
C318        O321   1.258       .  A
C318        C627   1.483       .  S
Cd319       O326   2.452       .  S
Cd319       O325   2.489       .  S
Cd319       O324   2.565   1_565  S
Cd319       O320   2.521       .  S
Cd319       O323   2.576   1_565  S
Cd319       O321   2.417   1_565  S
C322        O326   1.265       .  A
C322        C835   1.492       .  S
O327        C330   1.267   1_455  A
O327       Cd332   2.470       .  S
C328        O337   1.264       .  A
C328        O333   1.266       .  A
O329        C335   1.265       .  A
O329       Cd332   2.496       .  S
C330        O338   1.269   1_655  A
C330        C608   1.470       .  S
C331        O336   1.268       .  A
C331        O334   1.260       .  A
C331        C688   1.484       .  S
Cd332       O339   2.484       .  S
Cd332       O338   2.452       .  S
Cd332       O337   2.521       .  S
Cd332       O333   2.501       .  S
Cd332       O336   2.563       .  S
Cd332       O334   2.474       .  S
C335        O339   1.264       .  A
C335        C624   1.478       .  S
O340        C343   1.262       .  A
O340       Cd345   2.425       .  S
C341        O350   1.264       .  A
C341        O346   1.267   1_556  A
O342        C348   1.260       .  A
O342       Cd345   2.406       .  S
C343        O351   1.269       .  A
C343        C611   1.466       .  S
C344        O349   1.268       .  A
C344        O347   1.262   1_554  A
C344        C592   1.483       .  S
Cd345       O352   2.509       .  S
Cd345       O351   2.471       .  S
Cd345       O350   2.527       .  S
Cd345       O346   2.480   1_556  S
Cd345       O349   2.536   1_556  S
Cd345       O347   2.471       .  S
C348        O352   1.268       .  A
C348       C1027   1.467       .  S
O353        C356   1.262       .  A
O353       Cd358   2.437   1_565  S
C354        O363   1.265       .  A
C354        O359   1.262       .  A
O355        C361   1.270       .  A
O355       Cd358   2.502       .  S
C356        O364   1.267       .  A
C356        C576   1.472       .  S
C357        O362   1.269       .  A
C357        O360   1.263   1_545  A
C357        C867   1.485   1_545  S
Cd358       O365   2.458       .  S
Cd358       O364   2.503   1_545  S
Cd358       O363   2.517       .  S
Cd358       O359   2.513       .  S
Cd358       O362   2.544       .  S
Cd358       O360   2.461   1_545  S
C361        O365   1.266       .  A
C361        C595   1.480       .  S
O366        C369   1.266   1_455  A
O366       Cd371   2.518   1_455  S
C367        O376   1.260       .  A
C367        O372   1.265       .  A
C367        C579   1.473       .  S
O368        C374   1.262       .  A
O368       Cd371   2.380   1_455  S
C369        O377   1.263       .  A
C370        O375   1.263       .  A
C370        O373   1.267       .  A
C370        C563   1.463       .  S
Cd371       O378   2.546   1_655  S
Cd371       O377   2.525       .  S
Cd371       O376   2.460       .  S
Cd371       O372   2.511       .  S
Cd371       O375   2.451       .  S
Cd371       O373   2.490       .  S
C374        O378   1.271       .  A
C374        C640   1.476       .  S
O379        C382   1.269   1_556  A
O379       Cd384   2.526       .  S
C380        O389   1.263       .  A
C380        O385   1.264       .  A
O381        C387   1.266       .  A
O381       Cd384   2.506       .  S
C382        O390   1.266       .  A
C382        C544   1.481       .  S
C383        O388   1.267       .  A
C383        O386   1.261       .  A
C383        C560   1.468       .  S
Cd384       O391   2.449       .  S
Cd384       O390   2.447   1_556  S
Cd384       O389   2.441       .  S
Cd384       O385   2.530       .  S
Cd384       O388   2.512       .  S
Cd384       O386   2.417       .  S
C387        O391   1.264       .  A
C387        C528   1.473       .  S
O392        C395   1.269       .  A
O392       Cd397   2.510       .  S
C393        O402   1.266       .  A
C393        O398   1.266       .  A
O394        C400   1.264       .  A
O394       Cd397   2.496       .  S
C395        O403   1.262       .  A
C395        C547   1.482       .  S
C396        O401   1.268       .  A
C396        O399   1.266       .  A
C396        C515   1.477       .  S
Cd397       O404   2.537       .  S
Cd397       O403   2.492       .  S
Cd397       O402   2.519       .  S
Cd397       O398   2.554       .  S
Cd397       O401   2.495       .  S
Cd397       O399   2.460       .  S
C400        O404   1.266       .  A
C400        C851   1.487       .  S
O405        C408   1.266       .  A
O405       Cd410   2.495       .  S
C406        O415   1.269       .  A
C406        O411   1.266       .  A
O407        C413   1.263       .  A
O407       Cd410   2.489       .  S
C408        O416   1.262       .  A
C408        C496   1.470       .  S
C409        O414   1.264       .  A
C409        O412   1.267       .  A
C409        C915   1.477       .  S
Cd410       O417   2.490       .  S
Cd410       O416   2.434       .  S
Cd410       O415   2.476       .  S
Cd410       O411   2.470       .  S
Cd410       O414   2.470       .  S
Cd410       O412   2.494       .  S
C413        O417   1.262       .  A
C413        C512   1.475       .  S
O418        C421   1.267       .  A
O418       Cd423   2.539       .  S
C419        O428   1.266       .  A
C419        O424   1.259       .  A
C419        C499   1.473       .  S
O420        C426   1.269       .  A
O420       Cd423   2.495   1_556  S
C421        O429   1.263       .  A
C422        O427   1.262       .  A
C422        O425   1.263       .  A
C422        C720   1.461       .  S
Cd423       O430   2.456   1_554  S
Cd423       O429   2.528       .  S
Cd423       O428   2.521       .  S
Cd423       O424   2.464       .  S
Cd423       O427   2.444       .  S
Cd423       O425   2.497       .  S
C426        O430   1.269       .  A
C426        C480   1.480       .  S
O431        C434   1.267       .  A
O431       Cd436   2.489       .  S
C432        O441   1.258       .  A
C432        O437   1.267       .  A
C432        C467   1.470       .  S
O433        C439   1.263       .  A
O433       Cd436   2.464       .  S
C434        O442   1.265       .  A
C435        O440   1.263       .  A
C435        O438   1.267       .  A
C435        C675   1.475       .  S
Cd436       O443   2.485       .  S
Cd436       O442   2.525       .  S
Cd436       O441   2.457       .  S
Cd436       O437   2.530       .  S
Cd436       O440   2.483       .  S
Cd436       O438   2.505       .  S
C439        O443   1.267       .  A
C439        C531   1.474       .  S
O444        C447   1.261       .  A
O444       Cd449   2.459       .  S
C445        O454   1.266       .  A
C445        O450   1.266       .  A
O446        C452   1.268       .  A
O446       Cd449   2.509       .  S
C447        O455   1.264       .  A
C447        C464   1.472       .  S
C448        O453   1.263       .  A
C448        O451   1.265       .  A
C448        C771   1.483       .  S
Cd449       O456   2.495       .  S
Cd449       O455   2.505       .  S
Cd449       O454   2.511       .  S
Cd449       O450   2.517       .  S
Cd449       O453   2.497       .  S
Cd449       O451   2.514       .  S
C452        O456   1.265       .  A
C452        C483   1.483       .  S
C457        S463   1.712       .  A
C457        C462   1.387       .  A
C457        C458   1.404       .  A
C458        C459   1.405       .  A
C458        H469   1.083       .  S
C459        C468   1.372       .  A
C459        C460   1.387       .  A
C460        S466   1.711       .  A
C460        C461   1.402       .  A
C461        C462   1.403       .  A
C461        H470   1.083       .  S
C462        C465   1.370       .  A
S463        C464   1.723       .  A
C464        C465   1.387       .  A
C465        H471   1.083       .  S
S466        C467   1.720       .  A
C467        C468   1.387       .  A
C468        H472   1.083       .  S
C473        S479   1.707       .  A
C473        C478   1.386       .  A
C473        C474   1.403       .  A
C474        C475   1.403       .  A
C474        H485   1.083       .  S
C475        C484   1.375       .  A
C475        C476   1.386       .  A
C476        S482   1.715       .  A
C476        C477   1.410       .  A
C477        C478   1.409       .  A
C477        H486   1.083       .  S
C478        C481   1.380       .  A
S479        C480   1.723       .  A
C480        C481   1.393       .  A
C481        H487   1.083       .  S
S482        C483   1.729       .  A
C483        C484   1.387       .  A
C484        H488   1.083       .  S
C489        S495   1.713       .  A
C489        C494   1.387       .  A
C489        C490   1.403       .  A
C490        C491   1.406       .  A
C490        H501   1.083       .  S
C491        C500   1.371       .  A
C491        C492   1.387       .  A
C492        S498   1.710       .  A
C492        C493   1.400       .  A
C493        C494   1.401       .  A
C493        H502   1.083       .  S
C494        C497   1.366       .  A
S495        C496   1.723       .  A
C496        C497   1.385       .  A
C497        H503   1.083       .  S
S498        C499   1.721       .  A
C499        C500   1.389       .  A
C500        H504   1.083       .  S
C505        S511   1.708       .  A
C505        C510   1.387       .  A
C505        C506   1.402       .  A
C506        C507   1.403       .  A
C506        H517   1.083       .  S
C507        C516   1.371       .  A
C507        C508   1.386       .  A
C508        S514   1.712       .  A
C508        C509   1.405       .  A
C509        C510   1.406       .  A
C509        H518   1.083       .  S
C510        C513   1.374       .  A
S511        C512   1.722       .  A
C512        C513   1.389       .  A
C513        H519   1.083       .  S
S514        C515   1.725       .  A
C515        C516   1.388       .  A
C516        H520   1.083       .  S
C521        S527   1.703       .  A
C521        C526   1.387       .  A
C521        C522   1.399       .  A
C522        C523   1.400       .  A
C522        H533   1.083       .  S
C523        C532   1.371       .  A
C523        C524   1.387       .  A
C524        S530   1.711       .  A
C524        C525   1.407       .  A
C525        C526   1.407       .  A
C525        H534   1.083       .  S
C526        C529   1.377       .  A
S527        C528   1.720       .  A
C528        C529   1.390       .  A
C529        H535   1.083       .  S
S530        C531   1.727       .  A
C531        C532   1.385       .  A
C532        H536   1.083       .  S
C537        S543   1.720       .  A
C537        C542   1.386       .  A
C537        C538   1.410       .  A
C538        C539   1.412       .  A
C538        H549   1.083       .  S
C539        C548   1.379       .  A
C539        C540   1.386       .  A
C540        S546   1.709       .  A
C540        C541   1.400       .  A
C541        C542   1.401       .  A
C541        H550   1.083       .  S
C542        C545   1.369       .  A
S543        C544   1.729       .  A
C544        C545   1.386       .  A
C545        H551   1.083       .  S
S546        C547   1.721       .  A
C547        C548   1.395       .  A
C548        H552   1.083       .  S
C553        S559   1.698       .  A
C553        C558   1.388       .  A
C553        C554   1.396       .  A
C554        C555   1.396       .  A
C554        H565   1.083       .  S
C555        C564   1.367       .  A
C555        C556   1.388       .  A
C556        S562   1.712       .  A
C556        C557   1.407       .  A
C557        C558   1.407       .  A
C557        H566   1.083       .  S
C558        C561   1.377   1_554  A
S559        C560   1.719   1_554  A
C560        C561   1.389       .  A
C561        H567   1.083       .  S
S562        C563   1.724       .  A
C563        C564   1.379       .  A
C564        H568   1.083       .  S
C569        S575   1.713       .  A
C569        C574   1.387       .  A
C569        C570   1.403       .  A
C570        C571   1.406       .  A
C570        H581   1.083   1_655  S
C571        C580   1.371       .  A
C571        C572   1.387       .  A
C572        S578   1.710       .  A
C572        C573   1.400       .  A
C573        C574   1.402       .  A
C573        H582   1.083       .  S
C574        C577   1.367       .  A
S575        C576   1.723       .  A
C576        C577   1.386       .  A
C577        H583   1.083       .  S
S578        C579   1.721       .  A
C579        C580   1.389       .  A
C580        H584   1.083   1_655  S
C585        S591   1.708       .  A
C585        C590   1.387       .  A
C585        C586   1.404       .  A
C586        C587   1.404       .  A
C586        H597   1.083       .  S
C587        C596   1.374       .  A
C587        C588   1.386       .  A
C588        S594   1.714       .  A
C588        C589   1.407       .  A
C589        C590   1.407       .  A
C589        H598   1.083       .  S
C590        C593   1.379       .  A
S591        C592   1.726       .  A
C592        C593   1.391       .  A
C593        H599   1.083       .  S
S594        C595   1.725       .  A
C595        C596   1.389       .  A
C596        H600   1.083       .  S
C601        S607   1.702       .  A
C601        C606   1.387       .  A
C601        C602   1.398       .  A
C602        C603   1.398       .  A
C602        H613   1.083       .  S
C603        C612   1.368       .  A
C603        C604   1.387       .  A
C604        S610   1.706       .  A
C604        C605   1.404       .  A
C605        C606   1.404       .  A
C605        H614   1.083       .  S
C606        C609   1.373       .  A
S607        C608   1.720       .  A
C608        C609   1.389       .  A
C609        H615   1.083       .  S
S610        C611   1.726       .  A
C611        C612   1.382       .  A
C612        H616   1.083       .  S
C617        S623   1.713       .  A
C617        C622   1.386       .  A
C617        C618   1.409       .  A
C618        C619   1.408       .  A
C618        H629   1.083       .  S
C619        C628   1.384       .  A
C619        C620   1.387       .  A
C620        S626   1.701       .  A
C620        C621   1.402       .  A
C621        C622   1.401       .  A
C621        H630   1.083       .  S
C622        C625   1.374       .  A
S623        C624   1.726       .  A
C624        C625   1.387       .  A
C625        H631   1.083       .  S
S626        C627   1.726       .  A
C627        C628   1.392       .  A
C628        H632   1.083       .  S
C633        S639   1.725       .  A
C633        C638   1.385       .  A
C633        C634   1.412       .  A
C634        C635   1.414       .  A
C634        H645   1.083       .  S
C635        C644   1.380       .  A
C635        C636   1.387       .  A
C636        S642   1.698       .  A
C636        C637   1.392       .  A
C637        C638   1.394       .  A
C637        H646   1.083       .  S
C638        C641   1.359       .  A
S639        C640   1.730       .  A
C640        C641   1.382       .  A
C641        H647   1.084       .  S
S642        C643   1.717       .  A
C643        C644   1.394       .  A
C644        H648   1.083       .  S
C649        S655   1.707       .  A
C649        C654   1.387       .  A
C649        C650   1.404       .  A
C650        C651   1.404       .  A
C650        H661   1.083       .  S
C651        C660   1.375       .  A
C651        C652   1.386       .  A
C652        S658   1.708       .  A
C652        C653   1.403       .  A
C653        C654   1.404       .  A
C653        H662   1.083       .  S
C654        C657   1.375       .  A
S655        C656   1.724       .  A
C656        C657   1.388       .  A
C657        H663   1.083       .  S
S658        C659   1.724       .  A
C659        C660   1.389       .  A
C660        H664   1.083       .  S
C665        S671   1.713       .  A
C665        C670   1.386       .  A
C665        C666   1.405       .  A
C666        C667   1.406       .  A
C666        H677   1.083       .  S
C667        C676   1.375       .  A
C667        C668   1.387       .  A
C668        S674   1.711       .  A
C668        C669   1.404       .  A
C669        C670   1.405       .  A
C669        H678   1.083       .  S
C670        C673   1.372       .  A
S671        C672   1.724       .  A
C672        C673   1.389       .  A
C673        H679   1.083       .  S
S674        C675   1.723       .  A
C675        C676   1.388       .  A
C676        H680   1.083       .  S
C681        S687   1.723   1_655  A
C681        C686   1.386       .  A
C681        C682   1.413       .  A
C682        C683   1.414       .  A
C682        H693   1.083       .  S
C683        C692   1.385       .  A
C683        C684   1.386       .  A
C684        S690   1.706       .  A
C684        C685   1.401       .  A
C685        C686   1.402       .  A
C685        H694   1.083       .  S
C686        C689   1.372       .  A
S687        C688   1.729       .  A
C688        C689   1.387   1_455  A
C689        H695   1.083       .  S
S690        C691   1.723       .  A
C691        C692   1.396       .  A
C692        H696   1.083       .  S
C697        S703   1.709       .  A
C697        C702   1.387       .  A
C697        C698   1.403       .  A
C698        C699   1.404       .  A
C698        H709   1.083       .  S
C699        C708   1.374       .  A
C699        C700   1.386       .  A
C700        S706   1.714       .  A
C700        C701   1.408       .  A
C701        C702   1.408       .  A
C701        H710   1.083       .  S
C702        C705   1.379       .  A
S703        C704   1.724       .  A
C704        C705   1.391       .  A
C705        H711   1.083       .  S
S706        C707   1.728       .  A
C707        C708   1.388       .  A
C708        H712   1.083       .  S
C713        S719   1.695       .  A
C713        C718   1.388       .  A
C713        C714   1.391       .  A
C714        C715   1.393       .  A
C714        H725   1.083       .  S
C715        C724   1.359       .  A
C715        C716   1.386       .  A
C716        S722   1.720       .  A
C716        C717   1.411       .  A
C717        C718   1.411       .  A
C717        H726   1.083       .  S
C718        C721   1.379       .  A
S719        C720   1.711       .  A
C720        C721   1.391       .  A
C721        H727   1.083       .  S
S722        C723   1.728       .  A
C723        C724   1.380       .  A
C724        H728   1.084       .  S
C729        S735   1.716       .  A
C729        C734   1.386       .  A
C729        C730   1.408       .  A
C730        C731   1.408       .  A
C730        H741   1.083       .  S
C731        C740   1.377       .  A
C731        C732   1.386       .  A
C732        S738   1.712       .  A
C732        C733   1.404       .  A
C733        C734   1.406       .  A
C733        H742   1.083       .  S
C734        C737   1.375       .  A
S735        C736   1.728       .  A
C736        C737   1.390       .  A
C737        H743   1.083       .  S
S738        C739   1.725       .  A
C739        C740   1.391       .  A
C740        H744   1.083       .  S
C745        S751   1.699       .  A
C745        C750   1.387       .  A
C745        C746   1.396       .  A
C746        C747   1.396       .  A
C746        H757   1.083       .  S
C747        C756   1.366       .  A
C747        C748   1.385       .  A
C748        S754   1.724       .  A
C748        C749   1.415       .  A
C749        C750   1.416       .  A
C749        H758   1.083       .  S
C750        C753   1.385       .  A
S751        C752   1.720       .  A
C752        C753   1.396       .  A
C753        H759   1.083       .  S
S754        C755   1.734       .  A
C755        C756   1.383       .  A
C756        H760   1.083       .  S
C761        S767   1.712       .  A
C761        C766   1.386       .  A
C761        C762   1.405       .  A
C762        C763   1.406       .  A
C762        H773   1.083       .  S
C763        C772   1.377       .  A
C763        C764   1.386       .  A
C764        S770   1.713       .  A
C764        C765   1.406       .  A
C765        C766   1.407       .  A
C765        H774   1.083       .  S
C766        C769   1.377       .  A
S767        C768   1.724       .  A
C768        C769   1.391       .  A
C769        H775   1.083       .  S
S770        C771   1.726       .  A
C771        C772   1.390       .  A
C772        H776   1.083       .  S
C777        S783   1.715       .  A
C777        C782   1.386       .  A
C777        C778   1.409       .  A
C778        C779   1.409       .  A
C778        H789   1.083       .  S
C779        C788   1.381       .  A
C779        C780   1.387       .  A
C780        S786   1.705       .  A
C780        C781   1.402       .  A
C781        C782   1.402       .  A
C781        H790   1.083       .  S
C782        C785   1.373       .  A
S783        C784   1.728       .  A
C784        C785   1.386       .  A
C785        H791   1.083       .  S
S786        C787   1.724       .  A
C787        C788   1.392       .  A
C788        H792   1.083       .  S
C793        S799   1.711       .  A
C793        C798   1.387       .  A
C793        C794   1.404       .  A
C794        C795   1.405       .  A
C794        H805   1.083       .  S
C795        C804   1.375       .  A
C795        C796   1.386       .  A
C796        S802   1.719       .  A
C796        C797   1.410       .  A
C797        C798   1.410       .  A
C797        H806   1.083       .  S
C798        C801   1.381       .  A
S799        C800   1.723       .  A
C800        C801   1.391       .  A
C801        H807   1.083       .  S
S802        C803   1.728       .  A
C803        C804   1.391       .  A
C804        H808   1.083       .  S
C809        S815   1.712       .  A
C809        C814   1.387       .  A
C809        C810   1.403       .  A
C810        C811   1.405       .  A
C810        H821   1.083       .  S
C811        C820   1.370       .  A
C811        C812   1.386       .  A
C812        S818   1.711       .  A
C812        C813   1.401       .  A
C813        C814   1.403       .  A
C813        H822   1.083       .  S
C814        C817   1.368       .  A
S815        C816   1.724       .  A
C816        C817   1.386       .  A
C817        H823   1.083       .  S
S818        C819   1.722       .  A
C819        C820   1.389       .  A
C820        H824   1.083       .  S
C825        S831   1.723       .  A
C825        C830   1.385       .  A
C825        C826   1.416       .  A
C826        C827   1.414       .  A
C826        H837   1.082       .  S
C827        C836   1.389       .  A
C827        C828   1.386       .  A
C828        S834   1.708       .  A
C828        C829   1.406       .  A
C829        C830   1.406       .  A
C829        H838   1.083       .  S
C830        C833   1.380       .  A
S831        C832   1.733       .  A
C832        C833   1.392       .  A
C833        H839   1.083       .  S
S834        C835   1.726       .  A
C835        C836   1.396       .  A
C836        H840   1.082       .  S
C841        S847   1.711       .  A
C841        C846   1.386       .  A
C841        C842   1.404       .  A
C842        C843   1.405       .  A
C842        H853   1.083       .  S
C843        C852   1.375       .  A
C843        C844   1.386       .  A
C844        S850   1.718       .  A
C844        C845   1.410       .  A
C845        C846   1.410       .  A
C845        H854   1.083       .  S
C846        C849   1.380       .  A
S847        C848   1.724       .  A
C848        C849   1.393       .  A
C849        H855   1.083       .  S
S850        C851   1.728       .  A
C851        C852   1.390       .  A
C852        H856   1.083       .  S
C857        S863   1.708       .  A
C857        C862   1.387       .  A
C857        C858   1.400       .  A
C858        C859   1.402       .  A
C858        H869   1.083       .  S
C859        C868   1.371       .  A
C859        C860   1.386       .  A
C860        S866   1.720       .  A
C860        C861   1.411       .  A
C861        C862   1.411       .  A
C861        H870   1.083       .  S
C862        C865   1.379       .  A
S863        C864   1.716       .  A
C864        C865   1.391       .  A
C865        H871   1.083       .  S
S866        C867   1.729       .  A
C867        C868   1.388       .  A
C868        H872   1.083       .  S
C873        S879   1.709       .  A
C873        C878   1.387       .  A
C873        C874   1.408       .  A
C874        C875   1.407       .  A
C874        H885   1.083       .  S
C875        C884   1.380       .  A
C875        C876   1.388       .  A
C876        S882   1.693       .  A
C876        C877   1.395       .  A
C877        C878   1.394       .  A
C877        H886   1.083       .  S
C878        C881   1.367       .  A
S879        C880   1.728       .  A
C880        C881   1.380       .  A
C881        H887   1.083       .  S
S882        C883   1.719       .  A
C883        C884   1.390       .  A
C884        H888   1.083       .  S
C889        S895   1.697       .  A
C889        C894   1.388       .  A
C889        C890   1.393       .  A
C890        C891   1.395       .  A
C890        H901   1.083       .  S
C891        C900   1.364       .  A
C891        C892   1.386       .  A
C892        S898   1.720       .  A
C892        C893   1.411       .  A
C893        C894   1.411       .  A
C893        H902   1.083       .  S
C894        C897   1.379       .  A
S895        C896   1.714       .  A
C896        C897   1.390       .  A
C897        H903   1.083       .  S
S898        C899   1.730       .  A
C899        C900   1.382       .  A
C900        H904   1.083       .  S
C905        S911   1.703       .  A
C905        C910   1.387       .  A
C905        C906   1.401       .  A
C906        C907   1.401       .  A
C906        H917   1.083       .  S
C907        C916   1.373       .  A
C907        C908   1.387       .  A
C908        S914   1.710       .  A
C908        C909   1.407       .  A
C909        C910   1.406       .  A
C909        H918   1.083       .  S
C910        C913   1.378       .  A
S911        C912   1.723       .  A
C912        C913   1.389       .  A
C913        H919   1.083       .  S
S914        C915   1.727       .  A
C915        C916   1.387       .  A
C916        H920   1.083       .  S
C921        S927   1.709       .  A
C921        C926   1.386       .  A
C921        C922   1.402       .  A
C922        C923   1.402       .  A
C922        H933   1.083   1_545  S
C923        C932   1.372       .  A
C923        C924   1.386       .  A
C924        S930   1.714       .  A
C924        C925   1.407       .  A
C925        C926   1.409       .  A
C925        H934   1.083       .  S
C926        C929   1.378       .  A
S927        C928   1.722       .  A
C928        C929   1.393       .  A
C929        H935   1.083       .  S
S930        C931   1.727       .  A
C931        C932   1.387       .  A
C932        H936   1.083   1_545  S
C937        S943   1.706       .  A
C937        C942   1.387       .  A
C937        C938   1.400       .  A
C938        C939   1.401       .  A
C938        H949   1.083       .  S
C939        C948   1.371       .  A
C939        C940   1.386       .  A
C940        S946   1.714       .  A
C940        C941   1.407       .  A
C941        C942   1.408       .  A
C941        H950   1.083       .  S
C942        C945   1.376       .  A
S943        C944   1.722       .  A
C944        C945   1.391       .  A
C945        H951   1.083       .  S
S946        C947   1.728       .  A
C947        C948   1.385       .  A
C948        H952   1.083       .  S
C953        S959   1.711       .  A
C953        C958   1.386       .  A
C953        C954   1.402       .  A
C954        C955   1.403       .  A
C954        H965   1.083       .  S
C955        C964   1.370       .  A
C955        C956   1.387       .  A
C956        S962   1.713       .  A
C956        C957   1.405       .  A
C957        C958   1.406       .  A
C957        H966   1.083       .  S
C958        C961   1.373       .  A
S959        C960   1.722       .  A
C960        C961   1.390       .  A
C961        H967   1.083       .  S
S962        C963   1.725       .  A
C963        C964   1.386       .  A
C964        H968   1.083       .  S
C969        S975   1.707       .  A
C969        C974   1.387       .  A
C969        C970   1.402       .  A
C970        C971   1.403       .  A
C970        H981   1.083       .  S
C971        C980   1.373       .  A
C971        C972   1.387       .  A
C972        S978   1.711       .  A
C972        C973   1.405       .  A
C973        C974   1.405       .  A
C973        H982   1.083       .  S
C974        C977   1.374       .  A
S975        C976   1.722       .  A
C976        C977   1.390       .  A
C977        H983   1.083       .  S
S978        C979   1.722       .  A
C979        C980   1.386       .  A
C980        H984   1.083       .  S
C985        S991   1.693       .  A
C985        C990   1.388       .  A
C985        C986   1.388       .  A
C986        C987   1.390       .  A
C986        H997   1.083       .  S
C987        C996   1.353       .  A
C987        C988   1.386       .  A
C988        S994   1.723       .  A
C988        C989   1.411       .  A
C989        C990   1.413       .  A
C989        H998   1.082       .  S
C990        C993   1.378       .  A
S991        C992   1.715       .  A
C992        C993   1.392       .  A
C993        H999   1.083       .  S
S994        C995   1.727       .  A
C995        C996   1.379       .  A
C996       H1000   1.084       .  S
C1001      S1007   1.710       .  A
C1001      C1006   1.387       .  A
C1001      C1002   1.401       .  A
C1002      C1003   1.403       .  A
C1002      H1013   1.083       .  S
C1003      C1012   1.369       .  A
C1003      C1004   1.387       .  A
C1004      S1010   1.712       .  A
C1004      C1005   1.403       .  A
C1005      C1006   1.404       .  A
C1005      H1014   1.083       .  S
C1006      C1009   1.370       .  A
S1007      C1008   1.721       .  A
C1008      C1009   1.387       .  A
C1009      H1015   1.083       .  S
S1010      C1011   1.723       .  A
C1011      C1012   1.388       .  A
C1012      H1016   1.083       .  S
C1017      S1023   1.710   1_545  A
C1017      C1022   1.387       .  A
C1017      C1018   1.403       .  A
C1018      C1019   1.404       .  A
C1018      H1029   1.083       .  S
C1019      C1028   1.373       .  A
C1019      C1020   1.388       .  A
C1020      S1026   1.699       .  A
C1020      C1021   1.397       .  A
C1021      C1022   1.398       .  A
C1021      H1030   1.083       .  S
C1022      C1025   1.366       .  A
S1023      C1024   1.722   1_565  A
C1024      C1025   1.384       .  A
C1025      H1031   1.083       .  S
S1026      C1027   1.721       .  A
C1027      C1028   1.386       .  A
C1028      H1032   1.083       .  S
C1033      S1039   1.709       .  A
C1033      C1038   1.385       .  A
C1033      C1034   1.407       .  A
C1034      C1035   1.406       .  A
C1034      H1045   1.082       .  S
C1035      C1044   1.382       .  A
C1035      C1036   1.385       .  A
C1036      S1042   1.710       .  A
C1036      C1037   1.409       .  A
C1037      C1038   1.408       .  A
C1037      H1046   1.083       .  S
C1038      C1041   1.382       .  A
S1039      C1040   1.728       .  A
C1040      C1041   1.393       .  A
C1041      H1047   1.082       .  S
S1042      C1043   1.732       .  A
C1043      C1044   1.393       .  A
C1044      H1048   1.082       .  S
C1049      S1055   1.696       .  A
C1049      C1054   1.385       .  A
C1049      C1050   1.401       .  A
C1050      C1051   1.399       .  A
C1050      H1061   1.083       .  S
C1051      C1060   1.374       .  A
C1051      C1052   1.385       .  A
C1052      S1058   1.702       .  A
C1052      C1053   1.406       .  A
C1053      C1054   1.405       .  A
C1053      H1062   1.083       .  S
C1054      C1057   1.379       .  A
S1055      C1056   1.730       .  A
C1056      C1057   1.392       .  A
C1057      H1063   1.082       .  S
S1058      C1059   1.730       .  A
C1059      C1060   1.388       .  A
C1060      H1064   1.082       .  S
C1065      S1071   1.707       .  A
C1065      C1070   1.386       .  A
C1065      C1066   1.405       .  A
C1066      C1067   1.405       .  A
C1066      H1077   1.071       .  S
C1067      C1076   1.376       .  A
C1067      C1068   1.384       .  A
C1068      S1074   1.709   1_545  A
C1068      C1069   1.405       .  A
C1069      C1070   1.405       .  A
C1069      H1078   1.078       .  S
C1070      C1073   1.376       .  A
S1071      C1072   1.725       .  A
C1072      C1073   1.387       .  A
C1073      H1079   1.081       .  S
S1074      C1075   1.727   1_565  A
C1075      C1076   1.391       .  A
C1076      H1080   1.034       .  S
C1081      S1087   1.722       .  A
C1081      C1086   1.385       .  A
C1081      C1082   1.407       .  A
C1082      C1083   1.409       .  A
C1082      H1093   1.083       .  S
C1083      C1092   1.376       .  A
C1083      C1084   1.385       .  A
C1084      S1090   1.712       .  A
C1084      C1085   1.403       .  A
C1085      C1086   1.406       .  A
C1085      H1094   1.083       .  S
C1086      C1089   1.369       .  A
S1087      C1088   1.724       .  A
C1088      C1089   1.394       .  A
C1089      H1095   1.083       .  S
S1090      C1091   1.727       .  A
C1091      C1092   1.392       .  A
C1092      H1096   1.082       .  S
C1097      S1103   1.698       .  A
C1097      C1102   1.388       .  A
C1097      C1098   1.395       .  A
C1098      C1099   1.396       .  A
C1098      H1109   1.083       .  S
C1099      C1108   1.365       .  A
C1099      C1100   1.387       .  A
C1100      S1106   1.718       .  A
C1100      C1101   1.409       .  A
C1101      C1102   1.409       .  A
C1101      H1110   1.083       .  S
C1102      C1105   1.378       .  A
S1103      C1104   1.716       .  A
C1104      C1105   1.388       .  A
C1105      H1111   1.083       .  S
S1106      C1107   1.725       .  A
C1107      C1108   1.380       .  A
C1108      H1112   1.083       .  S
C1113      S1119   1.707       .  A
C1113      C1118   1.385       .  A
C1113      C1114   1.400       .  A
C1114      C1115   1.402       .  A
C1114      H1125   1.083       .  S
C1115      C1124   1.368       .  A
C1115      C1116   1.385       .  A
C1116      S1122   1.720       .  A
C1116      C1117   1.409       .  A
C1117      C1118   1.411       .  A
C1117      H1126   1.083       .  S
C1118      C1121   1.378       .  A
S1119      C1120   1.724       .  A
C1120      C1121   1.395       .  A
C1121      H1127   1.082       .  S
S1122      C1123   1.726       .  A
C1123      C1124   1.390       .  A
C1124      H1128   1.083       .  S
C1129      S1135   1.715       .  A
C1129      C1134   1.385       .  A
C1129      C1130   1.406       .  A
C1130      C1131   1.408       .  A
C1130      H1141   1.083       .  S
C1131      C1140   1.376       .  A
C1131      C1132   1.384       .  A
C1132      S1138   1.716       .  A
C1132      C1133   1.408       .  A
C1133      C1134   1.409       .  A
C1133      H1142   1.083       .  S
C1134      C1137   1.377       .  A
S1135      C1136   1.726       .  A
C1136      C1137   1.393       .  A
C1137      H1143   1.083       .  S
S1138      C1139   1.729       .  A
C1139      C1140   1.397       .  A
C1140      H1144   1.082       .  S
C1145      S1151   1.701       .  A
C1145      C1150   1.387       .  A
C1145      C1146   1.401       .  A
C1146      C1147   1.400       .  A
C1146      H1157   1.083       .  S
C1147      C1156   1.374       .  A
C1147      C1148   1.386       .  A
C1148      S1154   1.715       .  A
C1148      C1149   1.411       .  A
C1149      C1150   1.410       .  A
C1149      H1158   1.083       .  S
C1150      C1153   1.384       .  A
S1151      C1152   1.724       .  A
C1152      C1153   1.391       .  A
C1153      H1159   1.083       .  S
S1154      C1155   1.727       .  A
C1155      C1156   1.385       .  A
C1156      H1160   1.083       .  S
C1161      S1167   1.718       .  A
C1161      C1166   1.385       .  A
C1161      C1162   1.408       .  A
C1162      C1163   1.409       .  A
C1162      H1173   1.083       .  S
C1163      C1172   1.377       .  A
C1163      C1164   1.386       .  A
C1164      S1170   1.700       .  A
C1164      C1165   1.397       .  A
C1165      C1166   1.399       .  A
C1165      H1174   1.083       .  S
C1166      C1169   1.365       .  A
S1167      C1168   1.726       .  A
C1168      C1169   1.389       .  A
C1169      H1175   1.083       .  S
S1170      C1171   1.725       .  A
C1171      C1172   1.392       .  A
C1172      H1176   1.082       .  S
C1177      S1183   1.706       .  A
C1177      C1182   1.384       .  A
C1177      C1178   1.398       .  A
C1178      C1179   1.400       .  A
C1178      H1189   1.083       .  S
C1179      C1188   1.366       .  A
C1179      C1180   1.383       .  A
C1180      S1186   1.719       .  A
C1180      C1181   1.410       .  A
C1181      C1182   1.413       .  A
C1181      H1190   1.083       .  S
C1182      C1185   1.380       .  A
S1183      C1184   1.725       .  A
C1184      C1185   1.399       .  A
C1185      H1191   1.081       .  S
S1186      C1187   1.731       .  A
C1187      C1188   1.391       .  A
C1188      H1192   1.081       .  S
C1193      S1199   1.708       .  A
C1193      C1198   1.386       .  A
C1193      C1194   1.408       .  A
C1194      C1195   1.407       .  A
C1194      H1205   1.083       .  S
C1195      C1204   1.381       .  A
C1195      C1196   1.387       .  A
C1196      S1202   1.696       .  A
C1196      C1197   1.398       .  A
C1197      C1198   1.397       .  A
C1197      H1206   1.083       .  S
C1198      C1201   1.370       .  A
S1199      C1200   1.730       .  A
C1200      C1201   1.385       .  A
C1201      H1207   1.083       .  S
S1202      C1203   1.726       .  A
C1203      C1204   1.390       .  A
C1204      H1208   1.083       .  S
C1209      S1215   1.703       .  A
C1209      C1214   1.386       .  A
C1209      C1210   1.399       .  A
C1210      C1211   1.400       .  A
C1210      H1221   1.083       .  S
C1211      C1220   1.364       .  A
C1211      C1212   1.386       .  A
C1212      S1218   1.710       .  A
C1212      C1213   1.402       .  A
C1213      C1214   1.404       .  A
C1213      H1222   1.083       .  S
C1214      C1217   1.371       .  A
S1215      C1216   1.726       .  A
C1216      C1217   1.390       .  A
C1217      H1223   1.082       .  S
S1218      C1219   1.723       .  A
C1219      C1220   1.385       .  A
C1220      H1224   1.081       .  S
