geometry optimzed in LAMMPS
_audit_creation_date              2020-11-30 
_audit_creation_method            'lammps2cif' 
_symmetry_space_group_name_H-M    'P1' 
_symmetry_Int_Tables_number       1 
_symmetry_cell_setting            triclinic 
loop_ 
_symmetry_equiv_pos_as_xyz 
  x,y,z 
_cell_length_a                    38.18871955 
_cell_length_b                    41.46244251352228 
_cell_length_c                    37.7705448793102 
_cell_angle_alpha                 90.2760259747467 
_cell_angle_beta                  88.86778666058747 
_cell_angle_gamma                 88.15368824806971 
loop_ 
_atom_site_label 
_atom_site_type_symbol 
_atom_site_fract_x 
_atom_site_fract_y 
_atom_site_fract_z 
_atom_site_charge 
O1          O  0.44999099  0.46890118  0.04193272    -0.79700
O2          O  0.08238921  0.03361689  0.00906324    -0.79700
O3          O  0.03170889  0.46164539  0.04758158    -0.79700
O4          O  0.47398139  0.04021991  0.05917923    -0.79700
O5          O  0.07496570  0.46829736  0.00863175    -0.79800
O6          O  0.43048335  0.03281105  0.02540887    -0.79700
O7          O  0.04393750  0.04191861  0.05208186    -0.79700
O8          O  0.47794534  0.42361706  0.02703799    -0.79700
C9          C  0.45408078  0.43784762  0.04538827     1.10000
C10         C  0.07500517  0.04349115  0.04050992     1.09900
C11         C  0.06387615  0.45786632  0.03832737     1.10000
C12         C  0.44195428  0.04435953  0.05380431     1.09900
O13         O  0.45600345  0.02439367  0.45750530    -0.79700
O14         O  0.03559452  0.47235273  0.44432548    -0.79800
O15         O  0.46228789  0.45375282  0.47257601    -0.79700
O16         O  0.03598695  0.07510955  0.48453040    -0.79700
O17         O  0.04166376  0.03771172  0.44379060    -0.79800
O18         O  0.41329040  0.48015045  0.48785854    -0.79700
O19         O  0.46496520  0.06830521  0.48872468    -0.79700
O20         O  0.02956486  0.43511436  0.48365388    -0.79800
Co21       Co  0.45751561  0.49848699  0.99706836     1.51500
Co22       Co  0.05522844  0.00358310  0.47746094     1.51700
Co23       Co  0.49630742  0.46219597  0.00982931     1.51600
Co24       Co  0.50461037  0.05415630  0.52116679     1.51500
O25         O  0.50864825  0.50808383  0.00115003    -1.41600
C26         C  0.45267429  0.05474248  0.46132698     1.09900
C27         C  0.03835105  0.44306564  0.45270731     1.10000
C28         C  0.42869778  0.45820301  0.46961522     1.09900
C29         C  0.04463705  0.06673405  0.45299864     1.09900
O30         O  0.30429998  0.28420198  0.30803433    -0.79700
O31         O  0.18007033  0.22347085  0.26775050    -0.79700
O32         O  0.22354975  0.30648227  0.29424988    -0.79700
O33         O  0.28788426  0.18193255  0.26764512    -0.79700
O34         O  0.17980123  0.28648899  0.26838549    -0.79800
O35         O  0.30530027  0.21792838  0.30539469    -0.79700
O36         O  0.22457897  0.20068260  0.29152244    -0.79700
O37         O  0.28641946  0.32284368  0.27320929    -0.79700
C38         C  0.30225168  0.31397985  0.30090582     1.10000
C39         C  0.19208758  0.20589842  0.29188687     1.09900
C40         C  0.19119839  0.30334167  0.29284434     1.10000
C41         C  0.30381012  0.18880418  0.29575326     1.09900
O42         O  0.32612668  0.22011600  0.23129370    -0.79700
O43         O  0.21218402  0.29202999  0.20010157    -0.79800
O44         O  0.27831073  0.29202780  0.20472161    -0.79700
O45         O  0.22987352  0.17454954  0.22447787    -0.79700
O46         O  0.21203177  0.21923079  0.19751433    -0.79800
O47         O  0.32580687  0.28584779  0.23477409    -0.79700
O48         O  0.27764422  0.21761074  0.20244683    -0.79700
O49         O  0.22922513  0.33536268  0.22932646    -0.79800
Co50       Co  0.31121262  0.25209312  0.26950362     1.51500
Co51       Co  0.20429064  0.25495620  0.23622624     1.51700
Co52       Co  0.24942860  0.29761110  0.24920544     1.51600
Co53       Co  0.24972993  0.21042013  0.24668485     1.51500
O54         O  0.25703787  0.25348672  0.26257423    -1.41600
C55         C  0.31012086  0.21198590  0.20379690     1.09900
C56         C  0.21263534  0.32333422  0.20392329     1.10000
C57         C  0.31069534  0.29584512  0.20720948     1.09900
C58         C  0.21345618  0.18790522  0.19923287     1.09900
C59         C  0.16085638  0.15610886  0.12100544    -0.11500
C60         C  0.16394082  0.12276241  0.12682330     0.11100
C61         C  0.18551223  0.11095764  0.15409913    -0.03300
C62         C  0.20199827  0.13319257  0.17590809    -0.06000
C63         C  0.19768465  0.16690153  0.17163937    -0.16800
C64         C  0.17710619  0.17862936  0.14299984     0.02100
C65         C  0.14195800  0.10099465  0.10576497     0.12100
C66         C  0.19120456  0.07495702  0.16011988     0.62700
H67         H  0.21813629  0.12404557  0.19704535     0.12100
C68         C  0.17138968  0.21443166  0.13562706     0.54800
H69         H  0.14438672  0.16434698  0.09964323     0.07900
C70         C  0.10666389  0.09600458  0.11552757    -0.05900
C71         C  0.08694884  0.07567866  0.09441775    -0.06600
C72         C  0.10061580  0.06080754  0.06310031    -0.16200
C73         C  0.13654990  0.06523006  0.05398197    -0.01800
C74         C  0.15652750  0.08530567  0.07567625    -0.09300
C75         C  0.08950282  0.11280596  0.14768719     0.64900
H76         H  0.05986210  0.07233951  0.10191099     0.10400
C77         C  0.15404390  0.04928404  0.02168988     0.63300
H78         H  0.18370064  0.08951021  0.06896434     0.07700
F79         F  0.15120229  0.21984533  0.10605206    -0.19700
F80         F  0.20331040  0.22847578  0.12953165    -0.15900
F81         F  0.15415950  0.22936579  0.16412293    -0.19400
F82         F  0.20957944  0.06149560  0.13152264    -0.22800
F83         F  0.15946820  0.06008150  0.16380086    -0.24300
F84         F  0.21010537  0.06866275  0.19036615    -0.18300
F85         F  0.18976968  0.05404726  0.02038856    -0.20800
F86         F  0.14193264  0.05610089  0.48940697    -0.21900
F87         F  0.14639888  0.01188032  0.52413560    -0.19100
F88         F  0.05562994  0.10294674  0.15384460    -0.19200
F89         F  0.08808131  0.14578066  0.14240813    -0.23000
F90         F  0.10848958  0.10613374  0.17770322    -0.24600
C91         C  0.09026824  0.10589419  0.37291927    -0.11500
C92         C  0.10251481  0.13406834  0.38833549     0.11100
C93         C  0.09162355  0.14234797  0.42328975    -0.03300
C94         C  0.07244805  0.11992981  0.44319022    -0.06000
C95         C  0.06183429  0.09043435  0.42861610    -0.16800
C96         C  0.06937156  0.08423612  0.39199957     0.02100
C97         C  0.12628914  0.15439464  0.36659441     0.12100
C98         C  0.09891345  0.17524034  0.43887444     0.62700
H99         H  0.06553748  0.12551962  0.47053289     0.12100
C100        C  0.05526108  0.05543087  0.37247295     0.54800
H101        H  0.09773435  0.10079942  0.34558469     0.07900
C102        C  0.16284984  0.14770768  0.36382253    -0.05900
C103        C  0.18321891  0.16578278  0.34003896    -0.06600
C104        C  0.16838031  0.19009223  0.31854035    -0.16200
C105        C  0.13160014  0.19744829  0.32243702    -0.01800
C106        C  0.11140249  0.17918997  0.34627674    -0.09300
C107        C  0.18023090  0.12119714  0.38558912     0.64900
H108        H  0.21106372  0.16034723  0.33748850     0.10400
C109        C  0.11313491  0.22435014  0.30206631     0.63300
H110        H  0.08336285  0.18361412  0.34879090     0.07700
F111        F  0.07191612  0.02727339  0.38360995    -0.18500
F112        F  0.06066428  0.05766146  0.33621379    -0.15900
F113        F  0.01951372  0.05389235  0.37868045    -0.19400
F114        F  0.08052987  0.19872602  0.42035083    -0.22800
F115        F  0.13425395  0.18127594  0.43651390    -0.24300
F116        F  0.08858199  0.17757277  0.47416347    -0.18300
F117        F  0.07832623  0.22867535  0.31252274    -0.20800
F118        F  0.11387195  0.21723522  0.26624479    -0.21900
F119        F  0.12936187  0.25309618  0.30808891    -0.19100
F120        F  0.21602894  0.11867316  0.37904969    -0.19200
F121        F  0.16617439  0.09182127  0.37751232    -0.23000
F122        F  0.17484104  0.12759236  0.42125695    -0.24600
C123        C  0.13554186  0.39971399  0.07201773    -0.11500
C124        C  0.13118266  0.40386666  0.10858849     0.11100
C125        C  0.10634633  0.42707747  0.12204942    -0.03300
C126        C  0.08504007  0.44421912  0.09812917    -0.06000
C127        C  0.08854502  0.43953755  0.06137981    -0.16800
C128        C  0.11467804  0.41702291  0.04788300     0.02100
C129        C  0.15249356  0.38278378  0.13211107     0.12100
C130        C  0.10263049  0.43384290  0.16149218     0.62700
H131        H  0.06557812  0.46179835  0.10799141     0.12100
C132        C  0.11965241  0.40956407  0.00857568     0.54800
H133        H  0.15520537  0.38209681  0.06261562     0.07900
C134        C  0.14318612  0.35075151  0.13959306    -0.05900
C135        C  0.16462799  0.33205802  0.16189053    -0.06600
C136        C  0.19393280  0.34474316  0.17834314    -0.16200
C137        C  0.20258600  0.37740073  0.17155754    -0.01800
C138        C  0.18228361  0.39533737  0.14737618    -0.09300
C139        C  0.11032587  0.33657192  0.12466606     0.64900
H140        H  0.15776383  0.30746438  0.16767686     0.10400
C141        C  0.23218506  0.39395508  0.19006899     0.63300
H142        H  0.18871765  0.41992058  0.14102329     0.07700
F143        F  0.08849107  0.39960324  0.99505921    -0.19700
F144        F  0.14453803  0.38506618  0.00228906    -0.15900
F145        F  0.13066152  0.43650653  0.99061967    -0.19400
F146        F  0.13318637  0.44662638  0.17360110    -0.22800
F147        F  0.09623018  0.40565768  0.17956386    -0.24300
F148        F  0.07535452  0.45571425  0.16914821    -0.18300
F149        F  0.26315912  0.37602565  0.18585832    -0.20800
F150        F  0.22390297  0.39750222  0.22571983    -0.21900
F151        F  0.23766954  0.42444793  0.17664441    -0.19100
F152        F  0.10423177  0.30625895  0.13825854    -0.19200
F153        F  0.11367020  0.33379691  0.08827959    -0.23000
F154        F  0.08144343  0.35630537  0.13304176    -0.24600
C155        C  0.40749451  0.09730629  0.13150822    -0.11500
C156        C  0.37921694  0.11358962  0.11579891     0.11100
C157        C  0.37098025  0.10661353  0.08030819    -0.03300
C158        C  0.39050574  0.08203612  0.06219639    -0.06000
C159        C  0.41974493  0.06618117  0.07734134    -0.16800
C160        C  0.42873072  0.07437212  0.11275165     0.02100
C161        C  0.36016706  0.13926625  0.13677705     0.12100
C162        C  0.34353822  0.12674881  0.06088065     0.62700
H163        H  0.38441057  0.07659160  0.03494489     0.12100
C164        C  0.46122664  0.06055401  0.13069218     0.54800
H165        H  0.41365583  0.10390153  0.15843544     0.07900
C166        C  0.32960249  0.13295777  0.15692651    -0.05900
C167        C  0.31259164  0.15862390  0.17544845    -0.06600
C168        C  0.32717371  0.18923391  0.17780430    -0.16200
C169        C  0.35902204  0.19504956  0.15926105    -0.01800
C170        C  0.37447372  0.17000426  0.13823034    -0.09300
C171        C  0.31681655  0.09881630  0.16134969     0.64900
H172        H  0.28892968  0.15418743  0.19079158     0.10400
C173        C  0.37608397  0.22757253  0.16057980     0.63300
H174        H  0.39839596  0.17396449  0.12312206     0.07700
F175        F  0.46194562  0.06899007  0.16618645    -0.19700
F176        F  0.49091223  0.07235784  0.11449800    -0.15900
F177        F  0.46231369  0.02729902  0.12871886    -0.19400
F178        F  0.35398502  0.15832371  0.05901671    -0.22800
F179        F  0.31148677  0.12621850  0.07839933    -0.24300
F180        F  0.33905968  0.11561952  0.02670430    -0.18300
F181        F  0.38340270  0.23581905  0.19506698    -0.20800
F182        F  0.35378571  0.25071904  0.14657316    -0.21900
F183        F  0.40720794  0.22756260  0.14113170    -0.19100
F184        F  0.28673987  0.09805677  0.18235853    -0.19200
F185        F  0.34251831  0.08003953  0.17732036    -0.23000
F186        F  0.30953952  0.08529840  0.12896121    -0.24600
C187        C  0.35794335  0.41142900  0.42322708    -0.11500
C188        C  0.37680235  0.39939421  0.39362191     0.11100
C189        C  0.41192364  0.40815769  0.38781153    -0.03300
C190        C  0.42748554  0.42799010  0.41298634    -0.06000
C191        C  0.40918018  0.43902568  0.44361756    -0.16800
C192        C  0.37358237  0.43064511  0.44888902     0.02100
C193        C  0.35869826  0.37726186  0.36961456     0.12100
C194        C  0.43285272  0.39655813  0.35529567     0.62700
H195        H  0.45436195  0.43493147  0.40896682     0.12100
C196        C  0.35243787  0.44016927  0.48206710     0.54800
H197        H  0.33093245  0.40470406  0.42649971     0.07900
C198        C  0.35606511  0.34412247  0.37727874    -0.05900
C199        C  0.33719460  0.32478074  0.35425619    -0.06600
C200        C  0.32023842  0.33743191  0.32421942    -0.16200
C201        C  0.32218842  0.37116683  0.31730526    -0.01800
C202        C  0.34152442  0.39036002  0.34032063    -0.09300
C203        C  0.37262598  0.32934088  0.41003462     0.64900
H204        H  0.33549679  0.29933081  0.35992830     0.10400
C205        C  0.30412180  0.38734278  0.28622900     0.63300
H206        H  0.34333103  0.41601921  0.33584451     0.07700
F207        F  0.37012542  0.42971516  0.51169819    -0.19700
F208        F  0.31981410  0.42648810  0.48285263    -0.15900
F209        F  0.34707603  0.47328366  0.48357021    -0.19400
F210        F  0.41624149  0.40681324  0.32498722    -0.22800
F211        F  0.43575686  0.36326683  0.35488937    -0.24300
F212        F  0.46637126  0.40836270  0.35461257    -0.18300
F213        F  0.26845723  0.38259898  0.28849156    -0.20800
F214        F  0.31769020  0.37472776  0.25469375    -0.21900
F215        F  0.30882349  0.42031426  0.28571675    -0.19100
F216        F  0.36781322  0.29644222  0.41193787    -0.19200
F217        F  0.35773096  0.34342731  0.44020306    -0.23000
F218        F  0.40824323  0.33421626  0.40970397    -0.24600
C219        C  0.40940104  0.12290623  0.40697366    -0.11500
C220        C  0.38597332  0.10559390  0.38679879     0.11100
C221        C  0.38564907  0.07163496  0.38960058    -0.03300
C222        C  0.40855974  0.05617936  0.41344266    -0.06000
C223        C  0.43112884  0.07356039  0.43521402    -0.16800
C224        C  0.43125694  0.10780748  0.43199134     0.02100
C225        C  0.36197890  0.12415076  0.36322012     0.12100
C226        C  0.36062707  0.05195588  0.36808116     0.62700
H227        H  0.40814914  0.03020439  0.41587361     0.12100
C228        C  0.45353818  0.12886367  0.45492670     0.54800
H229        H  0.40944365  0.14882744  0.40368375     0.07900
C230        C  0.33272255  0.14250444  0.37676566    -0.05900
C231        C  0.31338917  0.16226298  0.35344378    -0.06600
C232        C  0.32188243  0.16357374  0.31714918    -0.16200
C233        C  0.35007360  0.14381664  0.30337446    -0.01800
C234        C  0.37007603  0.12492269  0.32690908    -0.09300
C235        C  0.32235588  0.14159148  0.41578857     0.64900
H236        H  0.29184095  0.17751569  0.36355219     0.10400
C237        C  0.35987328  0.14340895  0.26430293     0.63300
H238        H  0.39285041  0.11103154  0.31726670     0.07700
F239        F  0.44412990  0.12886031  0.98852799    -0.19700
F240        F  0.45140108  0.16291249  0.94353277    -0.15900
F241        F  0.48971284  0.12165610  0.94986594    -0.19400
F242        F  0.36784659  0.05543099  0.33233480    -0.22800
F243        F  0.32645398  0.06242427  0.37516641    -0.24300
F244        F  0.36337516  0.01939768  0.37590174    -0.18300
F245        F  0.38775379  0.12219764  0.25658985    -0.20800
F246        F  0.36936432  0.17381168  0.25385101    -0.21900
F247        F  0.33162733  0.13377694  0.24509651    -0.19100
F248        F  0.29101156  0.15835905  0.42264826    -0.19200
F249        F  0.34788644  0.15531801  0.43584496    -0.23000
F250        F  0.31840264  0.11002032  0.42637142    -0.24600
C251        C  0.07323240  0.36600127  0.40747766    -0.11500
C252        C  0.10068027  0.37841292  0.38714402     0.11100
C253        C  0.10569488  0.41201337  0.38612168    -0.03300
C254        C  0.08365805  0.43219936  0.40703131    -0.06000
C255        C  0.05698291  0.41988122  0.42869387    -0.16800
C256        C  0.05123166  0.38620458  0.42875617     0.02100
C257        C  0.12247247  0.35602235  0.36501728     0.12100
C258        C  0.13381258  0.42658877  0.36262724     0.62700
H259        H  0.08770870  0.45791635  0.40714044     0.12100
C260        C  0.02228856  0.37145975  0.45093020     0.54800
H261        H  0.06956992  0.34021610  0.40686337     0.07900
C262        C  0.15233422  0.33922055  0.37794917    -0.05900
C263        C  0.17433033  0.32197711  0.35363482    -0.06600
C264        C  0.16636962  0.32050675  0.31749435    -0.16200
C265        C  0.13501478  0.33593997  0.30529863    -0.01800
C266        C  0.11362176  0.35333630  0.32956710    -0.09300
C267        C  0.16075238  0.33987392  0.41706974     0.64900
H268        H  0.19788135  0.30955000  0.36262115     0.10400
C269        C  0.12459123  0.33565308  0.26666560     0.63300
H270        H  0.09003686  0.36594774  0.32093244     0.07700
F271        F  0.01758157  0.33952293  0.44183741    -0.19700
F272        F  0.99091177  0.38820364  0.44588455    -0.15900
F273        F  0.03063733  0.37250168  0.48636097    -0.19400
F274        F  0.12532554  0.42281292  0.32747621    -0.22800
F275        F  0.16600700  0.41154075  0.36838511    -0.24300
F276        F  0.13701197  0.45923706  0.36920789    -0.18300
F277        F  0.09592642  0.35599675  0.26045962    -0.20800
F278        F  0.11592723  0.30485540  0.25663085    -0.21900
F279        F  0.15197584  0.34601353  0.24578442    -0.19100
F280        F  0.19047164  0.32127618  0.42432262    -0.19200
F281        F  0.13311689  0.32788109  0.43661775    -0.23000
F282        F  0.16622196  0.37118788  0.42785506    -0.24600
C283        C  0.34188522  0.33994292  0.12344066    -0.11500
C284        C  0.37115066  0.35539359  0.13649948     0.11100
C285        C  0.38029530  0.35138973  0.17227191    -0.03300
C286        C  0.36024554  0.33107830  0.19373875    -0.06000
C287        C  0.33069919  0.31539517  0.18099019    -0.16800
C288        C  0.32131987  0.31986784  0.14497997     0.02100
C289        C  0.39162861  0.37609774  0.11225202     0.12100
C290        C  0.41067370  0.36913218  0.18797942     0.62700
H291        H  0.36704185  0.32812455  0.22103894     0.12100
C292        C  0.28993823  0.30407291  0.12886927     0.54800
H293        H  0.33512966  0.34406971  0.09610971     0.07900
C294        C  0.41859693  0.36312282  0.08986861    -0.05900
C295        C  0.43831384  0.38436719  0.06927645    -0.06600
C296        C  0.43190979  0.41814860  0.06985697    -0.16200
C297        C  0.40374698  0.43087397  0.09160392    -0.01800
C298        C  0.38410665  0.40940594  0.11230814    -0.09300
C299        C  0.42658278  0.32694485  0.08786669     0.64900
H300        H  0.45911743  0.37431584  0.05227168     0.10400
C301        C  0.39435038  0.46668873  0.09370265     0.63300
H302        H  0.36278580  0.41845122  0.12928549     0.07700
F303        F  0.28971722  0.27159530  0.13688376    -0.19700
F304        F  0.29017175  0.30676685  0.09233576    -0.15900
F305        F  0.25951022  0.31895116  0.14178449    -0.19400
F306        F  0.40423142  0.40205950  0.18596789    -0.22800
F307        F  0.44144460  0.36129339  0.16960287    -0.24300
F308        F  0.41549134  0.36143181  0.22320772    -0.18300
F309        F  0.38434053  0.47799659  0.06093804    -0.20800
F310        F  0.42296410  0.48306458  0.10495762    -0.21900
F311        F  0.36695931  0.47343892  0.11742223    -0.19100
F312        F  0.45304299  0.31927116  0.06338541    -0.19200
F313        F  0.39705139  0.31101363  0.07797041    -0.23000
F314        F  0.43700962  0.31567481  0.12049605    -0.24600
O315        O  0.45107617  0.46875465  0.54624618    -0.79700
O316        O  0.08154802  0.03466436  0.50817923    -0.79700
O317        O  0.03317664  0.46381891  0.55110603    -0.79700
O318        O  0.47396570  0.04052845  0.56036711    -0.79700
O319        O  0.07494910  0.46965902  0.51057854    -0.79800
O320        O  0.42985736  0.03146076  0.52777551    -0.79700
O321        O  0.04407892  0.04403019  0.55197128    -0.79700
O322        O  0.48027680  0.42371718  0.53309396    -0.79700
C323        C  0.45592971  0.43790053  0.55086243     1.10000
C324        C  0.07488060  0.04526867  0.53936215     1.09900
C325        C  0.06506980  0.45994330  0.54106240     1.10000
C326        C  0.44179908  0.04406623  0.55532827     1.09900
O327        O  0.45931022  0.02634786  0.95551904    -0.79700
O328        O  0.03788468  0.47265928  0.94156435    -0.79800
O329        O  0.46152168  0.45557764  0.96732056    -0.79700
O330        O  0.03811446  0.07464694  0.98496066    -0.79700
O331        O  0.04292686  0.03763562  0.94352974    -0.79800
O332        O  0.41360354  0.48326800  0.98312676    -0.79700
O333        O  0.46700229  0.06967572  0.98793882    -0.79700
O334        O  0.02853445  0.43502929  0.97974190    -0.79800
Co335      Co  0.45687160  0.49719450  0.50007688     1.51500
Co336      Co  0.05634411  0.00318983  0.97647236     1.51700
Co337      Co  0.49728331  0.46232149  0.51402658     1.51600
Co338      Co  0.50564239  0.05377774  0.02068850     1.51500
O339        O  0.50796725  0.50823680  0.50284141    -1.41600
C340        C  0.45555081  0.05652019  0.95994869     1.09900
C341        C  0.03886312  0.44316727  0.94940073     1.10000
C342        C  0.42796439  0.46083654  0.96481180     1.09900
C343        C  0.04601413  0.06641896  0.95321903     1.09900
O344        O  0.30172589  0.28188396  0.80988128    -0.79700
O345        O  0.18057582  0.21940614  0.76697286    -0.79700
O346        O  0.22106905  0.30307540  0.79335127    -0.79700
O347        O  0.28957511  0.17994028  0.76540672    -0.79700
O348        O  0.17781934  0.28305610  0.76677353    -0.79800
O349        O  0.30431832  0.21519872  0.80517864    -0.79700
O350        O  0.22599375  0.19548924  0.78863554    -0.79700
O351        O  0.28349697  0.32041223  0.77488359    -0.79700
C352        C  0.29811436  0.31177240  0.80336913     1.10000
C353        C  0.19357466  0.20046639  0.78944579     1.09900
C354        C  0.18878666  0.30021054  0.79118656     1.10000
C355        C  0.30423103  0.18632489  0.79433287     1.09900
O356        O  0.32632034  0.21963000  0.73137404    -0.79700
O357        O  0.21176803  0.28883902  0.69932072    -0.79800
O358        O  0.27810237  0.28951972  0.70545996    -0.79700
O359        O  0.23316079  0.17168956  0.72169883    -0.79700
O360        O  0.21245187  0.21620924  0.69640071    -0.79800
O361        O  0.32458457  0.28519622  0.73718111    -0.79700
O362        O  0.27836487  0.21772809  0.70161833    -0.79700
O363        O  0.22801357  0.33209807  0.72909385    -0.79800
Co364      Co  0.31011274  0.25043912  0.77053954     1.51500
Co365      Co  0.20377337  0.25161964  0.73540203     1.51700
Co366      Co  0.24807191  0.29459431  0.74915311     1.51600
Co367      Co  0.25072113  0.20786159  0.74498244     1.51500
O368        O  0.25605263  0.25072024  0.76264757    -1.41600
C369        C  0.31074000  0.21197839  0.70338021     1.09900
C370        C  0.21233022  0.32015521  0.70309825     1.10000
C371        C  0.31006776  0.29463135  0.70910224     1.09900
C372        C  0.21618452  0.18495329  0.69689018     1.09900
C373        C  0.17214460  0.15362823  0.61336017    -0.11500
C374        C  0.16993150  0.12089695  0.62179630     0.11100
C375        C  0.18664451  0.10868024  0.65210106    -0.03300
C376        C  0.20238623  0.13046696  0.67494589    -0.06000
C377        C  0.20218868  0.16398906  0.66843536    -0.16800
C378        C  0.18761908  0.17571683  0.63631590     0.02100
C379        C  0.14608227  0.10100035  0.60097884     0.12100
C380        C  0.18748151  0.07281347  0.66036879     0.62700
H381        H  0.21405791  0.12126328  0.69889019     0.12100
C382        C  0.18692734  0.21119640  0.62637134     0.54800
H383        H  0.15948990  0.16202823  0.58957411     0.07900
C384        C  0.10975992  0.10150727  0.60881748    -0.05900
C385        C  0.08827614  0.08202752  0.58873638    -0.06600
C386        C  0.10137856  0.06288442  0.56016158    -0.16200
C387        C  0.13798354  0.06311700  0.55182434    -0.01800
C388        C  0.15972334  0.08199336  0.57288697    -0.09300
C389        C  0.09358072  0.12306906  0.63795426     0.64900
H390        H  0.06046479  0.08257393  0.59481033     0.10400
C391        C  0.15438325  0.04402418  0.52100185     0.63300
H392        H  0.18762299  0.08258357  0.56728138     0.07700
F393        F  0.17463443  0.21615938  0.59251290    -0.19700
F394        F  0.22038549  0.22295212  0.62737836    -0.15900
F395        F  0.16497908  0.22850199  0.64960339    -0.19400
F396        F  0.20537711  0.05614379  0.63348656    -0.22800
F397        F  0.15380620  0.06168361  0.66318122    -0.24300
F398        F  0.20416296  0.06609479  0.69183575    -0.18300
F399        F  0.19053796  0.04583023  0.51989305    -0.20800
F400        F  0.13991191  0.06213210  0.99122308    -0.21900
F401        F  0.14923879  0.01636368  0.02253336    -0.19100
F402        F  0.05784235  0.11917936  0.64183483    -0.19200
F403        F  0.09879446  0.15508088  0.62998147    -0.23000
F404        F  0.10878347  0.11592462  0.67000138    -0.24600
C405        C  0.08020556  0.10864352  0.87043299    -0.11500
C406        C  0.10662121  0.12694769  0.88488923     0.11100
C407        C  0.11041125  0.12821816  0.92207187    -0.03300
C408        C  0.08829279  0.10968755  0.94355378    -0.06000
C409        C  0.06361613  0.08923668  0.92895063    -0.16800
C410        C  0.05903952  0.08907903  0.89167363     0.02100
C411        C  0.12934887  0.14515772  0.86027361     0.12100
C412        C  0.13854276  0.14809429  0.93881457     0.62700
H413        H  0.09148176  0.10970872  0.97201130     0.12100
C414        C  0.03250572  0.06814132  0.87397522     0.54800
H415        H  0.07727939  0.10885644  0.84194357     0.07900
C416        C  0.15798406  0.13029094  0.84137303    -0.05900
C417        C  0.17855600  0.14941262  0.81895393    -0.06600
C418        C  0.17089865  0.18248256  0.81437861    -0.16200
C419        C  0.14185564  0.19709315  0.83303838    -0.01800
C420        C  0.12129642  0.17796561  0.85532945    -0.09300
C421        C  0.16657635  0.09440425  0.84465834     0.64900
H422        H  0.20056305  0.13851260  0.80424863     0.10400
C423        C  0.13393617  0.23302834  0.83134801     0.63300
H424        H  0.09883176  0.18856846  0.86957011     0.07700
F425        F  0.04408994  0.03621438  0.87441959    -0.18500
F426        F  0.02752165  0.07682125  0.83903403    -0.15900
F427        F  0.00050493  0.07128125  0.89148021    -0.19400
F428        F  0.13398328  0.18020852  0.92986317    -0.22800
F429        F  0.17127855  0.13708570  0.92696222    -0.24300
F430        F  0.13755564  0.14611634  0.97539724    -0.18300
F431        F  0.10811392  0.24297509  0.85562305    -0.20800
F432        F  0.12272658  0.24139717  0.79796487    -0.21900
F433        F  0.16399687  0.24900368  0.83905711    -0.19100
F434        F  0.19567837  0.08500037  0.82424354    -0.19200
F435        F  0.13865635  0.07685142  0.83347244    -0.23000
F436        F  0.17333275  0.08685179  0.87950724    -0.24600
C437        C  0.14026825  0.40432156  0.57296834    -0.11500
C438        C  0.13257979  0.40316249  0.60917847     0.11100
C439        C  0.10462068  0.42250407  0.62364966    -0.03300
C440        C  0.08375947  0.44119589  0.60058667    -0.06000
C441        C  0.09036464  0.44150656  0.56375864    -0.16800
C442        C  0.11961174  0.42278397  0.54967284     0.02100
C443        C  0.15436711  0.38113745  0.63121328     0.12100
C444        C  0.09698720  0.42322423  0.66328593     0.62700
H445        H  0.06189234  0.45569703  0.61126185     0.12100
C446        C  0.12853623  0.42045766  0.51028398     0.54800
H447        H  0.16245457  0.38977254  0.56302299     0.07900
C448        C  0.14816885  0.34775880  0.63344147    -0.05900
C449        C  0.16870426  0.32869380  0.65623610    -0.06600
C450        C  0.19510485  0.34184726  0.67677749    -0.16200
C451        C  0.20243590  0.37524082  0.67297453    -0.01800
C452        C  0.18197851  0.39408091  0.64979779    -0.09300
C453        C  0.11985643  0.33239634  0.61193923     0.64900
H454        H  0.16347580  0.30328676  0.65887390     0.10400
C455        C  0.23111452  0.39154461  0.69321862     0.63300
H456        H  0.18663871  0.41956603  0.64667848     0.07700
F457        F  0.10001751  0.40969622  0.49234872    -0.19700
F458        F  0.15629250  0.39894864  0.50308720    -0.15900
F459        F  0.13791527  0.45018859  0.49749345    -0.19400
F460        F  0.12552522  0.43468711  0.68082519    -0.22800
F461        F  0.09035062  0.39249123  0.67519135    -0.24300
F462        F  0.06821947  0.44306469  0.67193608    -0.18300
F463        F  0.26253224  0.37427687  0.68893256    -0.20800
F464        F  0.22188440  0.39359442  0.72877095    -0.21900
F465        F  0.23637104  0.42262028  0.68140234    -0.19100
F466        F  0.11680908  0.29997657  0.61963947    -0.19200
F467        F  0.12785326  0.33497962  0.57623844    -0.23000
F468        F  0.08779707  0.34774033  0.61903814    -0.24600
C469        C  0.40556390  0.09701182  0.63165398    -0.11500
C470        C  0.37895593  0.11440395  0.61448168     0.11100
C471        C  0.37328621  0.10902259  0.57812249    -0.03300
C472        C  0.39246100  0.08383754  0.56090240    -0.06000
C473        C  0.41985657  0.06669041  0.57768711    -0.16800
C474        C  0.42757517  0.07442655  0.61345185     0.02100
C475        C  0.35971839  0.14008672  0.63488692     0.12100
C476        C  0.34937528  0.13146464  0.55706028     0.62700
H477        H  0.38792724  0.07906544  0.53314415     0.12100
C478        C  0.46002604  0.06122698  0.63193925     0.54800
H479        H  0.41022412  0.10286079  0.65913472     0.07900
C480        C  0.32777936  0.13434722  0.65284131    -0.05900
C481        C  0.31171265  0.15967468  0.67259087    -0.06600
C482        C  0.32777359  0.18942534  0.67724239    -0.16200
C483        C  0.36039340  0.19473233  0.66006003    -0.01800
C484        C  0.37548794  0.16997407  0.63852235    -0.09300
C485        C  0.31233229  0.10095863  0.65361519     0.64900
H486        H  0.28748002  0.15545673  0.68687700     0.10400
C487        C  0.37887489  0.22635151  0.66368790     0.63300
H488        H  0.40035281  0.17337407  0.62488453     0.07700
F489        F  0.45976531  0.06943008  0.66752709    -0.19700
F490        F  0.48956706  0.07398766  0.61639510    -0.15900
F491        F  0.46232697  0.02802031  0.62961810    -0.19400
F492        F  0.36202374  0.16232522  0.55808213    -0.22800
F493        F  0.31571385  0.13217047  0.57112709    -0.24300
F494        F  0.34783637  0.12205565  0.52191215    -0.18300
F495        F  0.38692266  0.23186708  0.69864326    -0.20800
F496        F  0.35742692  0.25119965  0.65189256    -0.21900
F497        F  0.40975710  0.22648385  0.64385598    -0.19100
F498        F  0.28024443  0.10107760  0.67130872    -0.19200
F499        F  0.33494123  0.07987557  0.67082947    -0.23000
F500        F  0.30748337  0.08954547  0.61972343    -0.24600
C501        C  0.35517949  0.41043169  0.92714740    -0.11500
C502        C  0.36935905  0.40178631  0.89392026     0.11100
C503        C  0.40195805  0.41406538  0.88283761    -0.03300
C504        C  0.42030002  0.43350173  0.90654955    -0.06000
C505        C  0.40661232  0.44142959  0.94043639    -0.16800
C506        C  0.37326809  0.42983227  0.95084002     0.02100
C507        C  0.34995555  0.37859568  0.87206311     0.12100
C508        C  0.41689659  0.40687846  0.84597002     0.62700
H509        H  0.44547035  0.44279569  0.89873198     0.12100
C510        C  0.35748287  0.43618926  0.98750685     0.54800
H511        H  0.33000943  0.40102600  0.93469303     0.07900
C512        C  0.35493394  0.34489274  0.87597790    -0.05900
C513        C  0.33725133  0.32420879  0.85326535    -0.06600
C514        C  0.31348728  0.33594684  0.82787412    -0.16200
C515        C  0.30603290  0.36988535  0.82655267    -0.01800
C516        C  0.32502541  0.39057981  0.84834335    -0.09300
C517        C  0.37827213  0.33087417  0.90463964     0.64900
H518        H  0.34216306  0.29844624  0.85524247     0.10400
C519        C  0.27790804  0.38457592  0.80307573     0.63300
H520        H  0.32070261  0.41646918  0.84700019     0.07700
F521        F  0.38143826  0.42697071  0.01267044    -0.19700
F522        F  0.32754366  0.41892483  0.99359223    -0.15900
F523        F  0.34856672  0.46859723  0.99152064    -0.19400
F524        F  0.39407847  0.41898321  0.82096859    -0.22800
F525        F  0.42141465  0.37396903  0.84087405    -0.24300
F526        F  0.44902439  0.42076012  0.84050637    -0.18300
F527        F  0.24668354  0.36916765  0.80868033    -0.20800
F528        F  0.28825925  0.38166928  0.76789696    -0.21900
F529        F  0.27170025  0.41706405  0.81027681    -0.19100
F530        F  0.38008230  0.29748951  0.90351962    -0.19200
F531        F  0.36500731  0.34019825  0.93757687    -0.23000
F532        F  0.41193046  0.34178234  0.90075629    -0.24600
C533        C  0.41022414  0.12349088  0.90582984    -0.11500
C534        C  0.38836462  0.10510705  0.88483684     0.11100
C535        C  0.39051304  0.07107405  0.88669326    -0.03300
C536        C  0.41340778  0.05670691  0.91102860    -0.06000
C537        C  0.43409730  0.07498167  0.93375035    -0.16800
C538        C  0.43277952  0.10920092  0.93079263     0.02100
C539        C  0.36357189  0.12257400  0.86125923     0.12100
C540        C  0.36823684  0.04986889  0.86378893     0.62700
H541        H  0.41455313  0.03069561  0.91291373     0.12100
C542        C  0.45473048  0.13085671  0.95340941     0.54800
H543        H  0.40875873  0.14945831  0.90294906     0.07900
C544        C  0.33361784  0.13990803  0.87480321    -0.05900
C545        C  0.31384172  0.15929154  0.85156443    -0.06600
C546        C  0.32237027  0.16091901  0.81531155    -0.16200
C547        C  0.35072904  0.14147619  0.80135761    -0.01800
C548        C  0.37149423  0.12338248  0.82492069    -0.09300
C549        C  0.32303377  0.13853227  0.91374417     0.64900
H550        H  0.29200260  0.17413319  0.86175315     0.10400
C551        C  0.35998748  0.14058236  0.76212999     0.63300
H552        H  0.39480055  0.11030524  0.81527856     0.07700
F553        F  0.44220231  0.12718233  0.48986188    -0.19700
F554        F  0.45148009  0.16096077  0.44503048    -0.15900
F555        F  0.48823328  0.11875500  0.45195053    -0.19400
F556        F  0.37678795  0.05404139  0.82844137    -0.22800
F557        F  0.33315904  0.05789269  0.86943300    -0.24300
F558        F  0.37328886  0.01740342  0.87135243    -0.18300
F559        F  0.38835364  0.11988577  0.75451233    -0.20800
F560        F  0.36849742  0.17099427  0.75086640    -0.21900
F561        F  0.33179359  0.12993509  0.74345228    -0.19100
F562        F  0.29041576  0.15316846  0.92016630    -0.19200
F563        F  0.34711680  0.15418784  0.93391642    -0.23000
F564        F  0.32154072  0.10676397  0.92451742    -0.24600
C565        C  0.06979767  0.36509782  0.90364072    -0.11500
C566        C  0.10037688  0.37546182  0.88677011     0.11100
C567        C  0.10921855  0.40828501  0.88831830    -0.03300
C568        C  0.08725533  0.42976786  0.90780844    -0.06000
C569        C  0.05720483  0.41939823  0.92584806    -0.16800
C570        C  0.04795818  0.38653584  0.92362692     0.02100
C571        C  0.12079757  0.35237719  0.86420711     0.12100
C572        C  0.14176164  0.42057087  0.86951373     0.62700
H573        H  0.09413112  0.45480184  0.91009781     0.12100
C574        C  0.01519480  0.37407079  0.94171699     0.54800
H575        H  0.06335157  0.33994438  0.90112241     0.07900
C576        C  0.14970457  0.33404110  0.87676598    -0.05900
C577        C  0.17187864  0.31787787  0.85190975    -0.06600
C578        C  0.16394182  0.31732041  0.81575775    -0.16200
C579        C  0.13263849  0.33304301  0.80393570    -0.01800
C580        C  0.11185511  0.35070541  0.82860797    -0.09300
C581        C  0.15616172  0.33075931  0.91612318     0.64900
H582        H  0.19518092  0.30484756  0.86061270     0.10400
C583        C  0.12176912  0.33280948  0.76540508     0.63300
H584        H  0.08882562  0.36433532  0.82021444     0.07700
F585        F  0.00818942  0.34307345  0.93072772    -0.19700
F586        F  0.98655550  0.39376610  0.93378686    -0.15900
F587        F  0.01937697  0.37342387  0.97797736    -0.19400
F588        F  0.14005652  0.41481058  0.83353297    -0.22800
F589        F  0.17141938  0.40507953  0.88235104    -0.24300
F590        F  0.14518759  0.45341748  0.87445760    -0.18300
F591        F  0.09201418  0.35198561  0.75994948    -0.20800
F592        F  0.11442862  0.30179676  0.75494813    -0.21900
F593        F  0.14837576  0.34447304  0.74429357    -0.19100
F594        F  0.18489641  0.31060312  0.92265737    -0.19200
F595        F  0.12715280  0.31779567  0.93249284    -0.23000
F596        F  0.16194123  0.36053370  0.93104356    -0.24600
C597        C  0.34377931  0.33852897  0.62632426    -0.11500
C598        C  0.37105272  0.35582138  0.64093704     0.11100
C599        C  0.37748453  0.35353948  0.67755137    -0.03300
C600        C  0.35731476  0.33271773  0.69817593    -0.06000
C601        C  0.32995800  0.31508507  0.68382786    -0.16800
C602        C  0.32259715  0.31840220  0.64719569     0.02100
C603        C  0.39249500  0.37644120  0.61741897     0.12100
C604        C  0.40514221  0.37350879  0.69499471     0.62700
H605        H  0.36220866  0.33086227  0.72606623     0.12100
C606        C  0.29246367  0.30158991  0.62995234     0.54800
H607        H  0.33891041  0.34141872  0.59835523     0.07900
C608        C  0.42145758  0.36367499  0.59757992    -0.05900
C609        C  0.44175783  0.38486981  0.57742251    -0.06600
C610        C  0.43393610  0.41840989  0.57587167    -0.16200
C611        C  0.40454558  0.43098663  0.59604107    -0.01800
C612        C  0.38426959  0.40956163  0.61615162    -0.09300
C613        C  0.43035757  0.32764416  0.59717428     0.64900
H614        H  0.46379181  0.37490599  0.56201188     0.10400
C615        C  0.39451889  0.46666069  0.59724172     0.63300
H616        H  0.36174594  0.41850255  0.63152650     0.07700
F617        F  0.29314147  0.26908742  0.63794777    -0.19700
F618        F  0.29376961  0.30434097  0.59343820    -0.15900
F619        F  0.26115182  0.31553964  0.64188518    -0.19400
F620        F  0.39635534  0.40595043  0.69183258    -0.22800
F621        F  0.43752240  0.36733241  0.67895402    -0.24300
F622        F  0.40799954  0.36674316  0.73070666    -0.18300
F623        F  0.38500664  0.47718843  0.56403314    -0.20800
F624        F  0.42259352  0.48363050  0.60876563    -0.21900
F625        F  0.36660804  0.47342769  0.62034426    -0.19100
F626        F  0.46088632  0.32036333  0.57800324    -0.19200
F627        F  0.40343604  0.31134869  0.58188720    -0.23000
F628        F  0.43482122  0.31654037  0.63129873    -0.24600
O629        O  0.44999563  0.96889874  0.04192686    -0.79700
O630        O  0.08238944  0.53361262  0.00906904    -0.79700
O631        O  0.03171361  0.96164625  0.04757722    -0.79700
O632        O  0.47397844  0.54022141  0.05917430    -0.79700
O633        O  0.07496890  0.96830084  0.00862600    -0.79800
O634        O  0.43047837  0.53281524  0.02540734    -0.79700
O635        O  0.04393474  0.54191831  0.05208374    -0.79700
O636        O  0.47795151  0.92361533  0.02703211    -0.79700
C637        C  0.45408456  0.93784515  0.04538024     1.10000
C638        C  0.07500333  0.54348877  0.04051467     1.09900
C639        C  0.06388082  0.95786872  0.03832186     1.10000
C640        C  0.44195205  0.54436573  0.05380037     1.09900
O641        O  0.45599675  0.52439066  0.45749942    -0.79700
O642        O  0.03559552  0.97236062  0.44432633    -0.79800
O643        O  0.46229335  0.95375684  0.47257969    -0.79700
O644        O  0.03598481  0.57510371  0.48452192    -0.79700
O645        O  0.04166896  0.53770417  0.44378355    -0.79800
O646        O  0.41329729  0.98015331  0.48786639    -0.79700
O647        O  0.46496100  0.56830004  0.48872136    -0.79700
O648        O  0.02956707  0.93512080  0.48365394    -0.79800
Co649      Co  0.45752159  0.99848680  0.99706554     1.51500
Co650      Co  0.05522776  0.50357637  0.47745860     1.51700
Co651      Co  0.49631367  0.96219518  0.00982557     1.51600
Co652      Co  0.50460566  0.55414994  0.52116229     1.51500
O653        O  0.50865288  0.00808431  0.00115097    -1.41600
C654        C  0.45266795  0.55473923  0.46132377     1.09900
C655        C  0.03835202  0.94307316  0.45270700     1.10000
C656        C  0.42870265  0.95820614  0.46962139     1.09900
C657        C  0.04463843  0.56672748  0.45299108     1.09900
O658        O  0.30430488  0.78420929  0.30802832    -0.79700
O659        O  0.18007238  0.72347620  0.26774985    -0.79700
O660        O  0.22355240  0.80648483  0.29425236    -0.79700
O661        O  0.28789112  0.68193996  0.26764144    -0.79700
O662        O  0.17980392  0.78649421  0.26838571    -0.79800
O663        O  0.30530793  0.71793871  0.30538763    -0.79700
O664        O  0.22458144  0.70068569  0.29151943    -0.79700
O665        O  0.28642005  0.82285173  0.27320699    -0.79700
C666        C  0.30225436  0.81398735  0.30090228     1.10000
C667        C  0.19208978  0.70590221  0.29188463     1.09900
C668        C  0.19120085  0.80334569  0.29284578     1.10000
C669        C  0.30381933  0.68881436  0.29574758     1.09900
O670        O  0.32612917  0.72012553  0.23128639    -0.79700
O671        O  0.21218238  0.79203551  0.20010156    -0.79800
O672        O  0.27830603  0.79203618  0.20471773    -0.79700
O673        O  0.22987725  0.67455373  0.22447488    -0.79700
O674        O  0.21203256  0.71923552  0.19751377    -0.79800
O675        O  0.32580465  0.78585699  0.23476566    -0.79700
O676        O  0.27764501  0.71761731  0.20244277    -0.79700
O677        O  0.22922003  0.83536728  0.22933008    -0.79800
Co678      Co  0.31121569  0.75210204  0.26949640     1.51500
Co679      Co  0.20429204  0.75496130  0.23622558     1.51700
Co680      Co  0.24942828  0.79761675  0.24920553     1.51600
Co681      Co  0.24973302  0.71042492  0.24668187     1.51500
O682        O  0.25704035  0.75349203  0.26257139    -1.41600
C683        C  0.31012220  0.71199530  0.20379061     1.09900
C684        C  0.21263153  0.82333956  0.20392569     1.10000
C685        C  0.31069073  0.79585358  0.20720215     1.09900
C686        C  0.21345574  0.68790987  0.19923275     1.09900
C687        C  0.16082391  0.65611431  0.12102790    -0.11500
C688        C  0.16392637  0.62276691  0.12683329     0.11100
C689        C  0.18551749  0.61096239  0.15409347    -0.03300
C690        C  0.20200631  0.63319776  0.17589987    -0.06000
C691        C  0.19767758  0.66690681  0.17164269    -0.16800
C692        C  0.17707730  0.67863501  0.14301918     0.02100
C693        C  0.14194730  0.60099595  0.10577486     0.12100
C694        C  0.19123199  0.57496166  0.16009733     0.62700
H695        H  0.21816105  0.62405088  0.19702427     0.12100
C696        C  0.17134190  0.71443775  0.13566031     0.54800
H697        H  0.14433963  0.66435227  0.09967724     0.07900
C698        C  0.10665978  0.59598598  0.11554776    -0.05900
C699        C  0.08694845  0.57565851  0.09443571    -0.06600
C700        C  0.10061264  0.56080464  0.06310726    -0.16200
C701        C  0.13654143  0.56524502  0.05398033    -0.01800
C702        C  0.15651497  0.58532312  0.07567554    -0.09300
C703        C  0.08950259  0.61276538  0.14772291     0.64900
H704        H  0.05986705  0.57230286  0.10193753     0.10400
C705        C  0.15403470  0.54931400  0.02167921     0.63300
H706        H  0.18368331  0.58954177  0.06895690     0.07700
F707        F  0.15112867  0.71985241  0.10610366    -0.19700
F708        F  0.20325297  0.72849268  0.12954270    -0.15900
F709        F  0.15412921  0.72936057  0.16417340    -0.19400
F710        F  0.20961200  0.56152037  0.13149228    -0.22800
F711        F  0.15950606  0.56006749  0.16377431    -0.24300
F712        F  0.21013917  0.56866596  0.19033913    -0.18300
F713        F  0.18975646  0.55409689  0.02036689    -0.20800
F714        F  0.14192160  0.55611198  0.48939113    -0.21900
F715        F  0.14640692  0.51188915  0.52411432    -0.19100
F716        F  0.05563449  0.60289439  0.15388272    -0.19200
F717        F  0.08806938  0.64574319  0.14246729    -0.23000
F718        F  0.10850026  0.60608042  0.17772870    -0.24600
C719        C  0.09024632  0.60590069  0.37290407    -0.11500
C720        C  0.10251175  0.63406541  0.38832496     0.11100
C721        C  0.09164689  0.64233279  0.42329044    -0.03300
C722        C  0.07247079  0.61991450  0.44319051    -0.06000
C723        C  0.06183620  0.59042889  0.42860959    -0.16800
C724        C  0.06935392  0.58424077  0.39198760     0.02100
C725        C  0.12628674  0.65439038  0.36658192     0.12100
C726        C  0.09896422  0.67521371  0.43888916     0.62700
H727        H  0.06557725  0.62549596  0.47053897     0.12100
C728        C  0.05522797  0.55544336  0.37245968     0.54800
H729        H  0.09769592  0.60081359  0.34556375     0.07900
C730        C  0.16284543  0.64769495  0.36380041    -0.05900
C731        C  0.18321626  0.66577347  0.34002181    -0.06600
C732        C  0.16838149  0.69009420  0.31853606    -0.16200
C733        C  0.13160362  0.69745888  0.32244207    -0.01800
C734        C  0.11140399  0.67919779  0.34627814    -0.09300
C735        C  0.18022206  0.62116945  0.38554894     0.64900
H736        H  0.21105912  0.66033073  0.33746341     0.10400
C737        C  0.11314419  0.72437514  0.30208801     0.63300
H738        H  0.08336617  0.68363049  0.34880131     0.07700
F739        F  0.07188354  0.52728037  0.38358016    -0.18500
F740        F  0.06061396  0.55768252  0.33619894    -0.15900
F741        F  0.01948293  0.55390887  0.37868473    -0.19400
F742        F  0.08056623  0.69871497  0.42040232    -0.22800
F743        F  0.13430467  0.68124270  0.43649405    -0.24300
F744        F  0.08867308  0.67752687  0.47419065    -0.18300
F745        F  0.07833879  0.72870767  0.31255330    -0.20800
F746        F  0.11387091  0.71727584  0.26626290    -0.21900
F747        F  0.12938400  0.75311259  0.30812181    -0.19100
F748        F  0.21602027  0.61864568  0.37901076    -0.19200
F749        F  0.16616169  0.59180074  0.37744837    -0.23000
F750        F  0.17483135  0.62754242  0.42122118    -0.24600
C751        C  0.13555793  0.89972852  0.07201399    -0.11500
C752        C  0.13118817  0.90387245  0.10858491     0.11100
C753        C  0.10633989  0.92707224  0.12204569    -0.03300
C754        C  0.08503537  0.94421392  0.09812436    -0.06000
C755        C  0.08855080  0.93954128  0.06137444    -0.16800
C756        C  0.11469296  0.91703515  0.04787820     0.02100
C757        C  0.15249778  0.88278952  0.13210808     0.12100
C758        C  0.10261009  0.93382685  0.16148967     0.62700
H759        H  0.06556583  0.96178610  0.10798664     0.12100
C760        C  0.11967539  0.90958146  0.00857041     0.54800
H761        H  0.15522949  0.88211849  0.06261249     0.07900
C762        C  0.14319492  0.85075431  0.13958088    -0.05900
C763        C  0.16463382  0.83206120  0.16188131    -0.06600
C764        C  0.19393059  0.84474936  0.17834550    -0.16200
C765        C  0.20257866  0.87740986  0.17156936    -0.01800
C766        C  0.18227954  0.89534683  0.14738571    -0.09300
C767        C  0.11034137  0.83657180  0.12464226     0.64900
H768        H  0.15777314  0.80746536  0.16766081     0.10400
C769        C  0.23216825  0.89396679  0.19009372     0.63300
H770        H  0.18870909  0.91993290  0.14104092     0.07700
F771        F  0.08851907  0.89961519  0.99504693    -0.19700
F772        F  0.14456818  0.88508940  0.00228483    -0.15900
F773        F  0.13068019  0.93652834  0.99061978    -0.19400
F774        F  0.13315458  0.94662366  0.17360999    -0.22800
F775        F  0.09622285  0.90563405  0.17955218    -0.24300
F776        F  0.07531908  0.95568242  0.16914479    -0.18300
F777        F  0.26314736  0.87604386  0.18588852    -0.20800
F778        F  0.22387473  0.89750622  0.22574300    -0.21900
F779        F  0.23764987  0.92446318  0.17667766    -0.19100
F780        F  0.10425382  0.80625247  0.13822085    -0.19200
F781        F  0.11369165  0.83380987  0.08825516    -0.23000
F782        F  0.08145251  0.85629592  0.13302144    -0.24600
C783        C  0.40751110  0.59733073  0.13149700    -0.11500
C784        C  0.37922919  0.61360948  0.11579063     0.11100
C785        C  0.37098395  0.60662610  0.08030404    -0.03300
C786        C  0.39050608  0.58204590  0.06219330    -0.06000
C787        C  0.41974828  0.56619364  0.07733567    -0.16800
C788        C  0.42874236  0.57439221  0.11274164     0.02100
C789        C  0.36017735  0.63928372  0.13676969     0.12100
C790        C  0.34353516  0.62675607  0.06087967     0.62700
H791        H  0.38440468  0.57659592  0.03494465     0.12100
C792        C  0.46123994  0.56057468  0.13067958     0.54800
H793        H  0.41367770  0.60393083  0.15842128     0.07900
C794        C  0.32961579  0.63297015  0.15692155    -0.05900
C795        C  0.31259994  0.65863396  0.17544245    -0.06600
C796        C  0.32717596  0.68924654  0.17779607    -0.16200
C797        C  0.35902106  0.69506793  0.15924990    -0.01800
C798        C  0.37447677  0.67002486  0.13821908    -0.09300
C799        C  0.31684021  0.59882576  0.16135062     0.64900
H800        H  0.28894071  0.65419359  0.19078815     0.10400
C801        C  0.37607486  0.72759462  0.16056656     0.63300
H802        H  0.39839658  0.67398923  0.12310847     0.07700
F803        F  0.46196945  0.56902213  0.16617011    -0.19700
F804        F  0.49092459  0.57236828  0.11447362    -0.15900
F805        F  0.46231856  0.52731894  0.12871901    -0.19400
F806        F  0.35398209  0.65833025  0.05900108    -0.22800
F807        F  0.31148940  0.62623119  0.07841013    -0.24300
F808        F  0.33904444  0.61561710  0.02670920    -0.18300
F809        F  0.38339920  0.73584077  0.19505253    -0.20800
F810        F  0.35376708  0.75073691  0.14656674    -0.21900
F811        F  0.40719409  0.72759274  0.14111111    -0.19100
F812        F  0.28675902  0.59806259  0.18235228    -0.19200
F813        F  0.34254432  0.58006055  0.17733284    -0.23000
F814        F  0.30957580  0.58529739  0.12896401    -0.24600
C815        C  0.35793929  0.91144286  0.42322873    -0.11500
C816        C  0.37680063  0.89939625  0.39363068     0.11100
C817        C  0.41192632  0.90814849  0.38782590    -0.03300
C818        C  0.42749013  0.92798091  0.41299956    -0.06000
C819        C  0.40918232  0.93902857  0.44362451    -0.16800
C820        C  0.37357915  0.93066054  0.44888915     0.02100
C821        C  0.35869398  0.87726549  0.36962296     0.12100
C822        C  0.43285771  0.89653763  0.35531622     0.62700
H823        H  0.45436981  0.93491354  0.40898331     0.12100
C824        C  0.35242792  0.94020030  0.48205798     0.54800
H825        H  0.33092506  0.90472673  0.42649665     0.07900
C826        C  0.35604959  0.84412780  0.37729072    -0.05900
C827        C  0.33718199  0.82478746  0.35426393    -0.06600
C828        C  0.32023888  0.83743851  0.32421942    -0.16200
C829        C  0.32219935  0.87117198  0.31730201    -0.01800
C830        C  0.34153241  0.89036368  0.34032170    -0.09300
C831        C  0.37259525  0.82934685  0.41005473     0.64900
H832        H  0.33547583  0.79933870  0.35993893     0.10400
C833        C  0.30414806  0.88734757  0.28621679     0.63300
H834        H  0.34334714  0.91602182  0.33584257     0.07700
F835        F  0.37009995  0.92974405  0.51169755    -0.19700
F836        F  0.31979629  0.92653397  0.48283566    -0.15900
F837        F  0.34708244  0.97331676  0.48355157    -0.19400
F838        F  0.41625608  0.90679327  0.32500258    -0.22800
F839        F  0.43574947  0.86324574  0.35491664    -0.24300
F840        F  0.46638096  0.90833157  0.35463744    -0.18300
F841        F  0.26848102  0.88261483  0.28846955    -0.20800
F842        F  0.31772162  0.87472286  0.25468823    -0.21900
F843        F  0.30886181  0.92031717  0.28569909    -0.19100
F844        F  0.36777156  0.79645004  0.41196214    -0.19200
F845        F  0.35769456  0.84344155  0.44021598    -0.23000
F846        F  0.40821423  0.83421297  0.40973496    -0.24600
C847        C  0.40939871  0.62291031  0.40697983    -0.11500
C848        C  0.38596956  0.60560203  0.38680279     0.11100
C849        C  0.38564017  0.57164317  0.38960215    -0.03300
C850        C  0.40854940  0.55618305  0.41344252    -0.06000
C851        C  0.43112114  0.57356023  0.43521489    -0.16800
C852        C  0.43125074  0.60780773  0.43199787     0.02100
C853        C  0.36198127  0.62416285  0.36322193     0.12100
C854        C  0.36061700  0.55196919  0.36807854     0.62700
H855        H  0.40813686  0.53020788  0.41587007     0.12100
C856        C  0.45352728  0.62886083  0.45494173     0.54800
H857        H  0.40944484  0.64883158  0.40369184     0.07900
C858        C  0.33272515  0.64251924  0.37676391    -0.05900
C859        C  0.31339477  0.66227650  0.35343868    -0.06600
C860        C  0.32189344  0.66358719  0.31714546    -0.16200
C861        C  0.35009138  0.64383569  0.30337575    -0.01800
C862        C  0.37008659  0.62493766  0.32691266    -0.09300
C863        C  0.32235275  0.64160773  0.41578560     0.64900
H864        H  0.29184366  0.67752788  0.36354302     0.10400
C865        C  0.35990732  0.64344038  0.26430806     0.63300
H866        H  0.39286234  0.61104646  0.31727414     0.07700
F867        F  0.44413787  0.62885689  0.98851999    -0.19700
F868        F  0.45140046  0.66291199  0.94352686    -0.15900
F869        F  0.48971675  0.62165745  0.94985194    -0.19400
F870        F  0.36784741  0.55543961  0.33233357    -0.22800
F871        F  0.32644515  0.56244734  0.37515338    -0.24300
F872        F  0.36335227  0.51941137  0.37590367    -0.18300
F873        F  0.38779532  0.62223601  0.25659986    -0.20800
F874        F  0.36939607  0.67384815  0.25387090    -0.21900
F875        F  0.33167200  0.63380900  0.24508564    -0.19100
F876        F  0.29101959  0.65839401  0.42264439    -0.19200
F877        F  0.34789058  0.65531521  0.43584850    -0.23000
F878        F  0.31837503  0.61003811  0.42636213    -0.24600
C879        C  0.07323573  0.86600780  0.40748040    -0.11500
C880        C  0.10067997  0.87841974  0.38714192     0.11100
C881        C  0.10568915  0.91202093  0.38611276    -0.03300
C882        C  0.08365216  0.93220734  0.40702226    -0.06000
C883        C  0.05698200  0.91988883  0.42869125    -0.16800
C884        C  0.05123458  0.88621153  0.42875811     0.02100
C885        C  0.12247341  0.85602827  0.36501691     0.12100
C886        C  0.13380288  0.92659604  0.36261301     0.62700
H887        H  0.08769970  0.95792484  0.40712705     0.12100
C888        C  0.02229555  0.87146612  0.45093706     0.54800
H889        H  0.06957660  0.84022210  0.40687083     0.07900
C890        C  0.15233810  0.83923097  0.37794873    -0.05900
C891        C  0.17433500  0.82198745  0.35363499    -0.06600
C892        C  0.16637162  0.82051134  0.31749541    -0.16200
C893        C  0.13501304  0.83593875  0.30530041    -0.01800
C894        C  0.11361999  0.85333613  0.32956809    -0.09300
C895        C  0.16075751  0.83988769  0.41706886     0.64900
H896        H  0.19788813  0.80956398  0.36262130     0.10400
C897        C  0.12458422  0.83564395  0.26666895     0.63300
H898        H  0.09003261  0.86594340  0.32093380     0.07700
F899        F  0.01758793  0.83952922  0.44184525    -0.19700
F900        F  0.99091731  0.88820911  0.44589663    -0.15900
F901        F  0.03065030  0.87250852  0.48636625    -0.19400
F902        F  0.12531664  0.92280944  0.32746317    -0.22800
F903        F  0.16600045  0.91155560  0.36837516    -0.24300
F904        F  0.13699484  0.95924688  0.36918327    -0.18300
F905        F  0.09591514  0.85598244  0.26046306    -0.20800
F906        F  0.11592383  0.80484324  0.25664178    -0.21900
F907        F  0.15196395  0.84600497  0.24578147    -0.19100
F908        F  0.19048183  0.82129688  0.42432143    -0.19200
F909        F  0.13312599  0.82788899  0.43661802    -0.23000
F910        F  0.16621893  0.87120350  0.42785290    -0.24600
C911        C  0.34187773  0.83995007  0.12343060    -0.11500
C912        C  0.37115005  0.85539205  0.13648564     0.11100
C913        C  0.38029922  0.85138404  0.17225627    -0.03300
C914        C  0.36024607  0.83107750  0.19372497    -0.06000
C915        C  0.33069329  0.81540210  0.18098028    -0.16800
C916        C  0.32130956  0.81987913  0.14497164     0.02100
C917        C  0.39162702  0.87609539  0.11223725     0.12100
C918        C  0.41068828  0.86911421  0.18795963     0.62700
H919        H  0.36704662  0.82812008  0.22102363     0.12100
C920        C  0.28992110  0.80409319  0.12886395     0.54800
H921        H  0.33511904  0.84408083  0.09610115     0.07900
C922        C  0.41858825  0.86311939  0.08984618    -0.05900
C923        C  0.43830745  0.88436373  0.06925658    -0.06600
C924        C  0.43190937  0.91814577  0.06984411    -0.16200
C925        C  0.40374758  0.93087166  0.09159243    -0.01800
C926        C  0.38410824  0.90940391  0.11229748    -0.09300
C927        C  0.42656210  0.82694021  0.08783127     0.64900
H928        H  0.45910720  0.87431183  0.05224735     0.10400
C929        C  0.39435081  0.96668637  0.09369241     0.63300
H930        H  0.36279056  0.91844953  0.12927884     0.07700
F931        F  0.28969703  0.77161370  0.13686872    -0.19700
F932        F  0.29014526  0.80679685  0.09233136    -0.15900
F933        F  0.25949886  0.81897269  0.14179092    -0.19400
F934        F  0.40426596  0.90204383  0.18594112    -0.22800
F935        F  0.44145470  0.86125629  0.16958431    -0.24300
F936        F  0.41550134  0.86141804  0.22318981    -0.18300
F937        F  0.38434576  0.97799701  0.06092747    -0.20800
F938        F  0.42296294  0.98306063  0.10495282    -0.21900
F939        F  0.36695631  0.97343560  0.11740833    -0.19100
F940        F  0.45301866  0.81926628  0.06334603    -0.19200
F941        F  0.39702425  0.81102113  0.07793049    -0.23000
F942        F  0.43698678  0.81565729  0.12045607    -0.24600
O943        O  0.45108706  0.96875806  0.54625246    -0.79700
O944        O  0.08154808  0.53465913  0.50817356    -0.79700
O945        O  0.03318705  0.96382399  0.55110636    -0.79700
O946        O  0.47395995  0.54052201  0.56036096    -0.79700
O947        O  0.07495505  0.96966383  0.51057418    -0.79800
O948        O  0.42985078  0.53145753  0.52776932    -0.79700
O949        O  0.04407925  0.54402811  0.55196465    -0.79700
O950        O  0.48028666  0.92372083  0.53309610    -0.79700
C951        C  0.45594161  0.93790387  0.55086777     1.10000
C952        C  0.07488089  0.54526659  0.53935500     1.09900
C953        C  0.06507920  0.95994818  0.54105882     1.10000
C954        C  0.44179395  0.54406430  0.55532066     1.09900
O955        O  0.45930293  0.52634512  0.95551870    -0.79700
O956        O  0.03788261  0.97266301  0.94156099    -0.79800
O957        O  0.46152757  0.95557759  0.96731613    -0.79700
O958        O  0.03812071  0.57464456  0.98495985    -0.79700
O959        O  0.04293356  0.53763172  0.94353082    -0.79800
O960        O  0.41361005  0.98326888  0.98312076    -0.79700
O961        O  0.46700281  0.56967536  0.98793250    -0.79700
O962        O  0.02853849  0.93503182  0.97973853    -0.79800
Co963      Co  0.45687917  0.99719824  0.50008301     1.51500
Co964      Co  0.05634533  0.50318622  0.97647622     1.51700
Co965      Co  0.49729124  0.96232598  0.51402895     1.51600
Co966      Co  0.50564043  0.55377756  0.02068460     1.51500
O967        O  0.50797409  0.00824224  0.50284610    -1.41600
C968        C  0.45554842  0.55651840  0.95994460     1.09900
C969        C  0.03886358  0.94317088  0.94939661     1.10000
C970        C  0.42797035  0.96083672  0.96480656     1.09900
C971        C  0.04602301  0.56641507  0.95321918     1.09900
O972        O  0.30173023  0.78188366  0.80987547    -0.79700
O973        O  0.18058075  0.71940597  0.76696991    -0.79700
O974        O  0.22107376  0.80307665  0.79335076    -0.79700
O975        O  0.28958121  0.67994193  0.76539663    -0.79700
O976        O  0.17782400  0.78305542  0.76677528    -0.79800
O977        O  0.30432221  0.71519985  0.80516976    -0.79700
O978        O  0.22600048  0.69548934  0.78862872    -0.79700
O979        O  0.28350070  0.82041367  0.77488038    -0.79700
C980        C  0.29811770  0.81177247  0.80336547     1.10000
C981        C  0.19358128  0.70046602  0.78944167     1.09900
C982        C  0.18879136  0.80021045  0.79118783     1.10000
C983        C  0.30423608  0.68632636  0.79432354     1.09900
O984        O  0.32632296  0.71963326  0.73136325    -0.79700
O985        O  0.21176847  0.78884375  0.69932036    -0.79800
O986        O  0.27810457  0.78952499  0.70545533    -0.79700
O987        O  0.23316433  0.67169169  0.72169005    -0.79700
O988        O  0.21245207  0.71621201  0.69639549    -0.79800
O989        O  0.32458705  0.78519841  0.73717580    -0.79700
O990        O  0.27836634  0.71773202  0.70160921    -0.79700
O991        O  0.22801637  0.83210168  0.72909443    -0.79800
Co992      Co  0.31011629  0.75044043  0.77053196     1.51500
Co993      Co  0.20377597  0.75162136  0.73539946     1.51700
Co994      Co  0.24807504  0.79459690  0.74915024     1.51600
Co995      Co  0.25072537  0.70786335  0.74497460     1.51500
O996        O  0.25605646  0.75072169  0.76264154    -1.41600
C997        C  0.31074208  0.71198431  0.70336864     1.09900
C998        C  0.21233196  0.82016002  0.70309894     1.10000
C999        C  0.31007017  0.79463603  0.70909811     1.09900
C1000       C  0.21618489  0.68495582  0.69688370     1.09900
C1001       C  0.17214543  0.65363014  0.61335211    -0.11500
C1002       C  0.16993253  0.62089854  0.62178725     0.11100
C1003       C  0.18664169  0.60868241  0.65209455    -0.03300
C1004       C  0.20238091  0.63046948  0.67494136    -0.06000
C1005       C  0.20218595  0.66399151  0.66842984    -0.16800
C1006       C  0.18761782  0.67571896  0.63630955     0.02100
C1007       C  0.14608371  0.60100197  0.60096836     0.12100
C1008       C  0.18747964  0.57281539  0.66036142     0.62700
H1009       H  0.21405048  0.62126601  0.69888657     0.12100
C1010       C  0.18692613  0.71119858  0.62636552     0.54800
H1011       H  0.15949254  0.66203002  0.58956529     0.07900
C1012       C  0.10976199  0.60150534  0.60880987    -0.05900
C1013       C  0.08827826  0.58202473  0.58872958    -0.06600
C1014       C  0.10137953  0.56288451  0.56015208    -0.16200
C1015       C  0.13798361  0.56312230  0.55181008    -0.01800
C1016       C  0.15972384  0.58199858  0.57287296    -0.09300
C1017       C  0.09358327  0.62306451  0.63794913     0.64900
H1018       H  0.06046765  0.58256798  0.59480672     0.10400
C1019       C  0.15438190  0.54403543  0.52098221     0.63300
H1020       H  0.18762291  0.58259142  0.56726503     0.07700
F1021       F  0.17463072  0.71616239  0.59250818    -0.19700
F1022       F  0.22038476  0.72295342  0.62737043    -0.15900
F1023       F  0.16497989  0.72850430  0.64959935    -0.19400
F1024       F  0.20538523  0.55614816  0.63348387    -0.22800
F1025       F  0.15380524  0.56168168  0.66316274    -0.24300
F1026       F  0.20415169  0.56609766  0.69183375    -0.18300
F1027       F  0.19053575  0.54584983  0.51986571    -0.20800
F1028       F  0.13988499  0.56215950  0.99121975    -0.21900
F1029       F  0.14925096  0.51639029  0.02251785    -0.19100
F1030       F  0.05784557  0.61917226  0.64183204    -0.19200
F1031       F  0.09879411  0.65507711  0.62997782    -0.23000
F1032       F  0.10878876  0.61591946  0.66999472    -0.24600
C1033       C  0.08022779  0.60863365  0.87043394    -0.11500
C1034       C  0.10664041  0.62694008  0.88489245     0.11100
C1035       C  0.11042451  0.62821328  0.92207587    -0.03300
C1036       C  0.08830214  0.60968464  0.94355610    -0.06000
C1037       C  0.06362919  0.58923100  0.92895102    -0.16800
C1038       C  0.05905932  0.58906987  0.89167303     0.02100
C1039       C  0.12936722  0.64515274  0.86027783     0.12100
C1040       C  0.13855412  0.64808947  0.93882172     0.62700
H1041       H  0.09148503  0.60970969  0.97201433     0.12100
C1042       C  0.03253021  0.56812922  0.87397162     0.54800
H1043       H  0.07730547  0.60884475  0.84194419     0.07900
C1044       C  0.15800335  0.63028889  0.84137590    -0.05900
C1045       C  0.17857166  0.64941258  0.81895546    -0.06600
C1046       C  0.17090761  0.68248089  0.81437618    -0.16200
C1047       C  0.14186048  0.69708771  0.83303327    -0.01800
C1048       C  0.12130794  0.67795898  0.85532988    -0.09300
C1049       C  0.16659940  0.59440278  0.84465931     0.64900
H1050       H  0.20058042  0.63851480  0.80425067     0.10400
C1051       C  0.13392733  0.73302028  0.83133206     0.63300
H1052       H  0.09884151  0.68855906  0.86956994     0.07700
F1053       F  0.04411874  0.53620350  0.87441757    -0.18500
F1054       F  0.02754936  0.57680847  0.83902969    -0.15900
F1055       F  0.00052686  0.57126571  0.89147268    -0.19400
F1056       F  0.13400041  0.68020270  0.92986390    -0.22800
F1057       F  0.17129129  0.63707606  0.92697863    -0.24300
F1058       F  0.13755835  0.64611693  0.97540475    -0.18300
F1059       F  0.10809711  0.74296424  0.85559978    -0.20800
F1060       F  0.12272028  0.74137778  0.79794468    -0.21900
F1061       F  0.16397985  0.74900762  0.83904214    -0.19100
F1062       F  0.19570187  0.58500214  0.82424343    -0.19200
F1063       F  0.13868112  0.57684803  0.83347274    -0.23000
F1064       F  0.17335710  0.58684950  0.87950768    -0.24600
C1065       C  0.14027996  0.90432673  0.57296016    -0.11500
C1066       C  0.13259235  0.90316814  0.60917065     0.11100
C1067       C  0.10463341  0.92250958  0.62364237    -0.03300
C1068       C  0.08377263  0.94120191  0.60058025    -0.06000
C1069       C  0.09037655  0.94151234  0.56375237    -0.16800
C1070       C  0.11962351  0.92279020  0.54966525     0.02100
C1071       C  0.15437844  0.88114278  0.63120596     0.12100
C1072       C  0.09699777  0.92322779  0.66327825     0.62700
H1073       H  0.06190596  0.95570320  0.61125603     0.12100
C1074       C  0.12854775  0.92046539  0.51027602     0.54800
H1075       H  0.16246541  0.88977678  0.56301418     0.07900
C1076       C  0.14817721  0.84776494  0.63343666    -0.05900
C1077       C  0.16870955  0.82870019  0.65623408    -0.06600
C1078       C  0.19510785  0.84185355  0.67677857    -0.16200
C1079       C  0.20243792  0.87524781  0.67297809    -0.01800
C1080       C  0.18198629  0.89408666  0.64979522    -0.09300
C1081       C  0.11986581  0.83240268  0.61193297     0.64900
H1082       H  0.16348080  0.80329309  0.65887097     0.10400
C1083       C  0.23110751  0.89155447  0.69323269     0.63300
H1084       H  0.18664676  0.91957187  0.64667594     0.07700
F1085       F  0.10003026  0.90970113  0.49234075    -0.19700
F1086       F  0.15630690  0.89895962  0.50307871    -0.15900
F1087       F  0.13792272  0.95019743  0.49748542    -0.19400
F1088       F  0.12553360  0.93469222  0.68081977    -0.22800
F1089       F  0.09036299  0.89249382  0.67518174    -0.24300
F1090       F  0.06822782  0.94306576  0.67192764    -0.18300
F1091       F  0.26252997  0.87429354  0.68895130    -0.20800
F1092       F  0.22186809  0.89359727  0.72878318    -0.21900
F1093       F  0.23635951  0.92263338  0.68142414    -0.19100
F1094       F  0.11680553  0.79998691  0.61964656    -0.19200
F1095       F  0.12787450  0.83497165  0.57623326    -0.23000
F1096       F  0.08780886  0.84775705  0.61901600    -0.24600
C1097       C  0.40556777  0.59702975  0.63163340    -0.11500
C1098       C  0.37896426  0.61442363  0.61445662     0.11100
C1099       C  0.37329602  0.60903836  0.57809788    -0.03300
C1100       C  0.39246470  0.58384607  0.56088398    -0.06000
C1101       C  0.41985564  0.56669662  0.57767345    -0.16800
C1102       C  0.42757566  0.57443872  0.61343614     0.02100
C1103       C  0.35972328  0.64010563  0.63485992     0.12100
C1104       C  0.34939702  0.63148532  0.55702883     0.62700
H1105       H  0.38793194  0.57907102  0.53312605     0.12100
C1106       C  0.46002647  0.56124132  0.63192475     0.54800
H1107       H  0.41022737  0.60288149  0.65911360     0.07900
C1108       C  0.32778184  0.63436412  0.65280908    -0.05900
C1109       C  0.31171481  0.65968771  0.67256440    -0.06600
C1110       C  0.32777642  0.68943688  0.67722485    -0.16200
C1111       C  0.36039661  0.69474705  0.66004397    -0.01800
C1112       C  0.37549199  0.66999251  0.63850149    -0.09300
C1113       C  0.31233296  0.60097618  0.65357288     0.64900
H1114       H  0.28748150  0.65546707  0.68684851     0.10400
C1115       C  0.37887810  0.72636556  0.66367830     0.63300
H1116       H  0.40035768  0.67339449  0.62486581     0.07700
F1117       F  0.45976587  0.56944801  0.66751159    -0.19700
F1118       F  0.48956662  0.57400154  0.61637818    -0.15900
F1119       F  0.46232799  0.52803434  0.62960745    -0.19400
F1120       F  0.36207368  0.66233609  0.55802706    -0.22800
F1121       F  0.31573908  0.63222323  0.57110586    -0.24300
F1122       F  0.34783955  0.62205909  0.52188754    -0.18300
F1123       F  0.38692229  0.73187733  0.69863526    -0.20800
F1124       F  0.35743182  0.75121509  0.65188368    -0.21900
F1125       F  0.40976243  0.72649976  0.64384990    -0.19100
F1126       F  0.28023539  0.60109636  0.67124795    -0.19200
F1127       F  0.33493144  0.57989248  0.67079966    -0.23000
F1128       F  0.30750231  0.58956345  0.61967753    -0.24600
C1129       C  0.35518139  0.91043311  0.92714603    -0.11500
C1130       C  0.36936046  0.90178387  0.89391998     0.11100
C1131       C  0.40196046  0.91405983  0.88283613    -0.03300
C1132       C  0.42030551  0.93349492  0.90654707    -0.06000
C1133       C  0.40661731  0.94142845  0.94043243    -0.16800
C1134       C  0.37327043  0.92983633  0.95083572     0.02100
C1135       C  0.34995498  0.87859359  0.87206423     0.12100
C1136       C  0.41689417  0.90687433  0.84596632     0.62700
H1137       H  0.44547696  0.94278581  0.89872862     0.12100
C1138       C  0.35748128  0.93620349  0.98749885     0.54800
H1139       H  0.33001018  0.90103009  0.93469233     0.07900
C1140       C  0.35493508  0.84489051  0.87597646    -0.05900
C1141       C  0.33725345  0.82420728  0.85326251    -0.06600
C1142       C  0.31348861  0.83594597  0.82787259    -0.16200
C1143       C  0.30603150  0.86988420  0.82655453    -0.01800
C1144       C  0.32502348  0.89057820  0.84834619    -0.09300
C1145       C  0.37827493  0.83087090  0.90463614     0.64900
H1146       H  0.34216709  0.79844472  0.85523705     0.10400
C1147       C  0.27790382  0.88457481  0.80308091     0.63300
H1148       H  0.32069943  0.91646748  0.84700492     0.07700
F1149       F  0.38143263  0.92698941  0.01266790    -0.19700
F1150       F  0.32753968  0.91894298  0.99358610    -0.15900
F1151       F  0.34856771  0.96861310  0.99150162    -0.19400
F1152       F  0.39407959  0.91899359  0.82096949    -0.22800
F1153       F  0.42139657  0.87396463  0.84086141    -0.24300
F1154       F  0.44902867  0.92074394  0.84050456    -0.18300
F1155       F  0.24668105  0.86916395  0.80868633    -0.20800
F1156       F  0.28825247  0.88167177  0.76790115    -0.21900
F1157       F  0.27169393  0.91706204  0.81028555    -0.19100
F1158       F  0.38008385  0.79748619  0.90351555    -0.19200
F1159       F  0.36501279  0.84019497  0.93757440    -0.23000
F1160       F  0.41193340  0.84177816  0.90075017    -0.24600
C1161       C  0.41022850  0.62348966  0.90582042    -0.11500
C1162       C  0.38836312  0.60510694  0.88483283     0.11100
C1163       C  0.39050475  0.57107409  0.88669478    -0.03300
C1164       C  0.41340209  0.55670619  0.91102733    -0.06000
C1165       C  0.43409660  0.57498029  0.93374497    -0.16800
C1166       C  0.43278216  0.60919954  0.93078462     0.02100
C1167       C  0.36357236  0.62257521  0.86125425     0.12100
C1168       C  0.36821626  0.54987024  0.86380176     0.62700
H1169       H  0.41454337  0.53069515  0.91291571     0.12100
C1170       C  0.45473407  0.63085561  0.95340034     0.54800
H1171       H  0.40876810  0.64945665  0.90293504     0.07900
C1172       C  0.33362227  0.63991546  0.87479776    -0.05900
C1173       C  0.31384638  0.65929687  0.85155683    -0.06600
C1174       C  0.32237477  0.66092125  0.81530362    -0.16200
C1175       C  0.35073483  0.64147900  0.80135158    -0.01800
C1176       C  0.37149560  0.62338169  0.82491564    -0.09300
C1177       C  0.32304296  0.63854938  0.91374071     0.64900
H1178       H  0.29200837  0.67414067  0.86174429     0.10400
C1179       C  0.36000118  0.64059220  0.76212543     0.63300
H1180       H  0.39479995  0.61030071  0.81527465     0.07700
F1181       F  0.44218546  0.62717239  0.48987461    -0.19700
F1182       F  0.45146851  0.66095978  0.44505288    -0.15900
F1183       F  0.48822365  0.61875479  0.45196932    -0.19400
F1184       F  0.37675014  0.55404221  0.82845016    -0.22800
F1185       F  0.33314142  0.55789625  0.86946338    -0.24300
F1186       F  0.37326987  0.51740452  0.87136335    -0.18300
F1187       F  0.38837329  0.61990193  0.75451015    -0.20800
F1188       F  0.36850706  0.67100749  0.75086922    -0.21900
F1189       F  0.33181363  0.62994305  0.74343913    -0.19100
F1190       F  0.29043092  0.65319659  0.92016509    -0.19200
F1191       F  0.34713461  0.65420089  0.93390615    -0.23000
F1192       F  0.32154016  0.60678375  0.92452089    -0.24600
C1193       C  0.06979855  0.86510216  0.90363684    -0.11500
C1194       C  0.10037593  0.87546712  0.88676355     0.11100
C1195       C  0.10921525  0.90829112  0.88830906    -0.03300
C1196       C  0.08725011  0.92977413  0.90779684    -0.06000
C1197       C  0.05720334  0.91940286  0.92584161    -0.16800
C1198       C  0.04796029  0.88653929  0.92362527     0.02100
C1199       C  0.12079844  0.85238158  0.86420294     0.12100
C1200       C  0.14176131  0.92057663  0.86950973     0.62700
H1201       H  0.09412392  0.95480887  0.91008386     0.12100
C1202       C  0.01520384  0.87407129  0.94172598     0.54800
H1203       H  0.06335439  0.83994784  0.90112130     0.07900
C1204       C  0.14970306  0.83404451  0.87676522    -0.05900
C1205       C  0.17187989  0.81788045  0.85191138    -0.06600
C1206       C  0.16394549  0.81732102  0.81575850    -0.16200
C1207       C  0.13264126  0.83304092  0.80393442    -0.01800
C1208       C  0.11185767  0.85070674  0.82860367    -0.09300
C1209       C  0.15615276  0.83076141  0.91612363     0.64900
H1210       H  0.19518108  0.80485033  0.86061696     0.10400
C1211       C  0.12176976  0.83279939  0.76540462     0.63300
H1212       H  0.08882867  0.86433582  0.82020786     0.07700
F1213       F  0.00819863  0.84307303  0.93073993    -0.19700
F1214       F  0.98655948  0.89376365  0.93380495    -0.15900
F1215       F  0.01939797  0.87342523  0.97798480    -0.19400
F1216       F  0.14007043  0.91480385  0.83353033    -0.22800
F1217       F  0.17141697  0.90509479  0.88236415    -0.24300
F1218       F  0.14517868  0.95342578  0.87444157    -0.18300
F1219       F  0.09201223  0.85197126  0.75994667    -0.20800
F1220       F  0.11443212  0.80178394  0.75495503    -0.21900
F1221       F  0.14837374  0.84446188  0.74428892    -0.19100
F1222       F  0.18488382  0.81060240  0.92266268    -0.19200
F1223       F  0.12713938  0.81780014  0.93248763    -0.23000
F1224       F  0.16193247  0.86053503  0.93104581    -0.24600
C1225       C  0.34379451  0.83853431  0.62632595    -0.11500
C1226       C  0.37106869  0.85582277  0.64094280     0.11100
C1227       C  0.37749352  0.85354175  0.67755856    -0.03300
C1228       C  0.35731817  0.83272216  0.69817976    -0.06000
C1229       C  0.32996189  0.81509183  0.68382720    -0.16800
C1230       C  0.32260520  0.81841154  0.64719451     0.02100
C1231       C  0.39251393  0.87644283  0.61742837     0.12100
C1232       C  0.40515015  0.87350878  0.69500688     0.62700
H1233       H  0.36220807  0.83086586  0.72607072     0.12100
C1234       C  0.29246941  0.80160556  0.62994807     0.54800
H1235       H  0.33893034  0.84142471  0.59835593     0.07900
C1236       C  0.42147969  0.86367819  0.59759300    -0.05900
C1237       C  0.44177987  0.88487413  0.57743681    -0.06600
C1238       C  0.43395159  0.91841292  0.57587985    -0.16200
C1239       C  0.40455648  0.93098742  0.59604399    -0.01800
C1240       C  0.38428361  0.90956194  0.61615665    -0.09300
C1241       C  0.43037952  0.82764738  0.59718495     0.64900
H1242       H  0.46381684  0.87491186  0.56202967     0.10400
C1243       C  0.39452009  0.96665953  0.59723556     0.63300
H1244       H  0.36175691  0.91850119  0.63152819     0.07700
F1245       F  0.29314863  0.76910042  0.63793071    -0.19700
F1246       F  0.29376998  0.80436931  0.59343504    -0.15900
F1247       F  0.26115905  0.81555141  0.64189036    -0.19400
F1248       F  0.39637212  0.90595137  0.69183559    -0.22800
F1249       F  0.43753387  0.86732315  0.67897750    -0.24300
F1250       F  0.40799439  0.86674907  0.73072152    -0.18300
F1251       F  0.38501141  0.97717954  0.56402316    -0.20800
F1252       F  0.42258757  0.98363766  0.60876109    -0.21900
F1253       F  0.36660356  0.97342445  0.62033170    -0.19100
F1254       F  0.46091432  0.82036865  0.57802297    -0.19200
F1255       F  0.40346263  0.81135470  0.58188576    -0.23000
F1256       F  0.43483161  0.81653871  0.63130912    -0.24600
O1257       O  0.94998482  0.46890270  0.04192659    -0.79700
O1258       O  0.58239108  0.03361681  0.00906498    -0.79700
O1259       O  0.53171566  0.46164851  0.04758286    -0.79700
O1260       O  0.97397919  0.04022236  0.05917726    -0.79700
O1261       O  0.57496801  0.46829989  0.00862815    -0.79800
O1262       O  0.93047937  0.03281447  0.02540904    -0.79700
O1263       O  0.54394037  0.04191761  0.05208519    -0.79700
O1264       O  0.97793724  0.42361792  0.02703103    -0.79700
C1265       C  0.95407240  0.43784870  0.04538064     1.10000
C1266       C  0.57500786  0.04348991  0.04051248     1.09900
C1267       C  0.56388241  0.45787150  0.03832610     1.10000
C1268       C  0.94195195  0.04436287  0.05380398     1.09900
O1269       O  0.95600275  0.02439355  0.45750463    -0.79700
O1270       O  0.53558951  0.47235187  0.44432513    -0.79800
O1271       O  0.96229252  0.45375128  0.47257456    -0.79700
O1272       O  0.53599303  0.07510809  0.48452763    -0.79700
O1273       O  0.54167084  0.03770813  0.44379063    -0.79800
O1274       O  0.91329410  0.48014762  0.48785612    -0.79700
O1275       O  0.96496123  0.06830447  0.48872592    -0.79700
O1276       O  0.52955910  0.43511363  0.48365349    -0.79800
Co1277     Co  0.95751450  0.49849090  0.99706479     1.51500
Co1278     Co  0.55523209  0.00358041  0.47746246     1.51700
Co1279     Co  0.99630273  0.46219707  0.00982570     1.51600
Co1280     Co  0.00460598  0.05415599  0.52116857     1.51500
O1281       O  0.00864784  0.50808511  0.00114942    -1.41600
C1282       C  0.95267181  0.05474213  0.46132729     1.09900
C1283       C  0.53834505  0.44306479  0.45270671     1.10000
C1284       C  0.92870218  0.45820024  0.46961328     1.09900
C1285       C  0.54464747  0.06673019  0.45299747     1.09900
O1286       O  0.80429603  0.28420517  0.30803324    -0.79700
O1287       O  0.68007040  0.22347111  0.26774596    -0.79700
O1288       O  0.72354453  0.30648231  0.29425223    -0.79700
O1289       O  0.78788527  0.18193668  0.26764468    -0.79700
O1290       O  0.67979721  0.28648833  0.26838607    -0.79800
O1291       O  0.80530037  0.21793257  0.30539463    -0.79700
O1292       O  0.72458012  0.20068653  0.29151927    -0.79700
O1293       O  0.78641412  0.32284716  0.27320963    -0.79700
C1294       C  0.80224809  0.31398289  0.30090476     1.10000
C1295       C  0.69208865  0.20590079  0.29188339     1.09900
C1296       C  0.69119333  0.30334023  0.29284626     1.10000
C1297       C  0.80381053  0.18880836  0.29575352     1.09900
O1298       O  0.82612639  0.22012068  0.23129285    -0.79700
O1299       O  0.71217879  0.29203538  0.20010174    -0.79800
O1300       O  0.77830482  0.29203285  0.20472290    -0.79700
O1301       O  0.72987531  0.17455404  0.22447387    -0.79700
O1302       O  0.71203237  0.21923503  0.19751016    -0.79800
O1303       O  0.82580256  0.28585236  0.23477315    -0.79700
O1304       O  0.77764466  0.21761700  0.20244502    -0.79700
O1305       O  0.72921930  0.33536596  0.22933065    -0.79800
Co1306     Co  0.81121062  0.25209727  0.26950283     1.51500
Co1307     Co  0.70428898  0.25495871  0.23622417     1.51700
Co1308     Co  0.74942346  0.29761401  0.24920708     1.51600
Co1309     Co  0.74973061  0.21042423  0.24668256     1.51500
O1310       O  0.75703596  0.25348990  0.26257334    -1.41600
C1311       C  0.81012111  0.21199207  0.20379524     1.09900
C1312       C  0.71263098  0.32333939  0.20392557     1.10000
C1313       C  0.81068957  0.29584997  0.20720949     1.09900
C1314       C  0.71345863  0.18790934  0.19922811     1.09900
C1315       C  0.66085634  0.15610837  0.12100469    -0.11500
C1316       C  0.66394822  0.12276186  0.12682006     0.11100
C1317       C  0.68552809  0.11095928  0.15409020    -0.03300
C1318       C  0.70201265  0.13319606  0.17589809    -0.06000
C1319       C  0.69769000  0.16690473  0.17163352    -0.16800
C1320       C  0.67710528  0.17863064  0.14299768     0.02100
C1321       C  0.64196483  0.10099165  0.10576511     0.12100
C1322       C  0.69123196  0.07495920  0.16010566     0.62700
H1323       H  0.71815697  0.12405059  0.19703122     0.12100
C1324       C  0.67138129  0.21443252  0.13562743     0.54800
H1325       H  0.64438138  0.16434489  0.09964595     0.07900
C1326       C  0.60667234  0.09599849  0.11553223    -0.05900
C1327       C  0.58695538  0.07567348  0.09442283    -0.06600
C1328       C  0.60061967  0.06080507  0.06310267    -0.16200
C1329       C  0.63655270  0.06522906  0.05398118    -0.01800
C1330       C  0.65653168  0.08530468  0.07567401    -0.09300
C1331       C  0.58951566  0.11279431  0.14769752     0.64900
H1332       H  0.55986976  0.07233250  0.10191885     0.10400
C1333       C  0.65404396  0.04928494  0.02168661     0.63300
H1334       H  0.68370355  0.08951116  0.06895878     0.07700
F1335       F  0.65118841  0.21984429  0.10605588    -0.19700
F1336       F  0.70329855  0.22848160  0.12952768    -0.15900
F1337       F  0.65415304  0.22936315  0.16412655    -0.19400
F1338       F  0.70960938  0.06150587  0.13150557    -0.22800
F1339       F  0.65950081  0.06007466  0.16378637    -0.24300
F1340       F  0.71013641  0.06866657  0.19035000    -0.18300
F1341       F  0.68976955  0.05404862  0.02038225    -0.20800
F1342       F  0.64195853  0.05605963  0.48942145    -0.21900
F1343       F  0.64639250  0.01185270  0.52417381    -0.19100
F1344       F  0.55564327  0.10293470  0.15385705    -0.19200
F1345       F  0.58809395  0.14577013  0.14242649    -0.23000
F1346       F  0.60850669  0.10611562  0.17770922    -0.24600
C1347       C  0.59031308  0.10587773  0.37292905    -0.11500
C1348       C  0.60253330  0.13406470  0.38833967     0.11100
C1349       C  0.59161915  0.14235202  0.42328512    -0.03300
C1350       C  0.57244470  0.11993217  0.44318438    -0.06000
C1351       C  0.56185191  0.09042727  0.42861559    -0.16800
C1352       C  0.56941578  0.08421779  0.39200573     0.02100
C1353       C  0.62630152  0.15439719  0.36659942     0.12100
C1354       C  0.59887890  0.17525519  0.43885939     0.62700
H1355       H  0.56551458  0.12552992  0.47052055     0.12100
C1356       C  0.55533221  0.05539928  0.37248086     0.54800
H1357       H  0.59779787  0.10077636  0.34560068     0.07900
C1358       C  0.66286687  0.14773103  0.36384486    -0.05900
C1359       C  0.68323099  0.16580649  0.34005783    -0.06600
C1360       C  0.66838346  0.19009595  0.31853911    -0.16200
C1361       C  0.63159821  0.19743353  0.32241967    -0.01800
C1362       C  0.61140543  0.17917481  0.34626324    -0.09300
C1363       C  0.68025838  0.12124080  0.38563182     0.64900
H1364       H  0.71107966  0.16038589  0.33752022     0.10400
C1365       C  0.61312207  0.22431499  0.30202695     0.63300
H1366       H  0.58336274  0.18358370  0.34876555     0.07700
F1367       F  0.57198530  0.02725118  0.38364755    -0.18500
F1368       F  0.56076712  0.05761391  0.33622462    -0.15900
F1369       F  0.51958071  0.05385442  0.37865684    -0.19400
F1370       F  0.58047668  0.19872169  0.42032579    -0.22800
F1371       F  0.63421325  0.18131743  0.43650026    -0.24300
F1372       F  0.58854259  0.17759021  0.47414691    -0.18300
F1373       F  0.57830609  0.22862088  0.31246475    -0.20800
F1374       F  0.61388148  0.21718529  0.26620873    -0.21900
F1375       F  0.62932299  0.25307552  0.30804342    -0.19100
F1376       F  0.71606137  0.11874276  0.37911509    -0.19200
F1377       F  0.66623366  0.09185086  0.37755639    -0.23000
F1378       F  0.67484168  0.12764354  0.42129463    -0.24600
C1379       C  0.63555604  0.39972898  0.07201625    -0.11500
C1380       C  0.63119498  0.40388097  0.10858687     0.11100
C1381       C  0.60635929  0.42709241  0.12204743    -0.03300
C1382       C  0.58505112  0.44423138  0.09812710    -0.06000
C1383       C  0.58855539  0.43954803  0.06137806    -0.16800
C1384       C  0.61469224  0.41703720  0.04788115     0.02100
C1385       C  0.65250187  0.38279568  0.13210988     0.12100
C1386       C  0.60264590  0.43386095  0.16148975     0.62700
H1387       H  0.56558772  0.46180952  0.10798901     0.12100
C1388       C  0.61967127  0.40958186  0.00857335     0.54800
H1389       H  0.65522043  0.38211227  0.06261463     0.07900
C1390       C  0.64318987  0.35076436  0.13959019    -0.05900
C1391       C  0.66462784  0.33206824  0.16188882    -0.06600
C1392       C  0.69393189  0.34475072  0.17834535    -0.16200
C1393       C  0.70258799  0.37740823  0.17156305    -0.01800
C1394       C  0.68229119  0.39534646  0.14737873    -0.09300
C1395       C  0.61032860  0.33658900  0.12466045     0.64900
H1396       H  0.65776095  0.30747494  0.16767316     0.10400
C1397       C  0.73218357  0.39396126  0.19008160     0.63300
H1398       H  0.68872847  0.41992919  0.14102694     0.07700
F1399       F  0.58851397  0.39961401  0.99505361    -0.19700
F1400       F  0.64456469  0.38509072  0.00228646    -0.15900
F1401       F  0.63067380  0.43652834  0.99062027    -0.19400
F1402       F  0.63320374  0.44664273  0.17359601    -0.22800
F1403       F  0.59624352  0.40567760  0.17956415    -0.24300
F1404       F  0.57537264  0.45573533  0.16914525    -0.18300
F1405       F  0.76315869  0.37603309  0.18587311    -0.20800
F1406       F  0.72389583  0.39750416  0.22573168    -0.21900
F1407       F  0.73766895  0.42445600  0.17666261    -0.19100
F1408       F  0.60422944  0.30627653  0.13825160    -0.19200
F1409       F  0.61367489  0.33381463  0.08827405    -0.23000
F1410       F  0.58144826  0.35632558  0.13303493    -0.24600
C1411       C  0.90749993  0.09731322  0.13150907    -0.11500
C1412       C  0.87921840  0.11359319  0.11580310     0.11100
C1413       C  0.87097653  0.10661385  0.08031463    -0.03300
C1414       C  0.89050143  0.08203684  0.06220149    -0.06000
C1415       C  0.91974436  0.06618487  0.07734282    -0.16800
C1416       C  0.92873501  0.07437908  0.11275107     0.02100
C1417       C  0.86016928  0.13927006  0.13678150     0.12100
C1418       C  0.84352806  0.12674485  0.06089120     0.62700
H1419       H  0.88440199  0.07658987  0.03495159     0.12100
C1420       C  0.96123435  0.06056404  0.13068802     0.54800
H1421       H  0.91366480  0.10391083  0.15843459     0.07900
C1422       C  0.82960882  0.13296046  0.15693689    -0.05900
C1423       C  0.81259577  0.15862743  0.17545503    -0.06600
C1424       C  0.82717334  0.18923968  0.17780316    -0.16200
C1425       C  0.85901761  0.19505735  0.15925371    -0.01800
C1426       C  0.87447074  0.17001066  0.13822604    -0.09300
C1427       C  0.81683002  0.09881771  0.16137027     0.64900
H1428       H  0.78893640  0.15419016  0.19080229     0.10400
C1429       C  0.87607274  0.22758384  0.16056192     0.63300
H1430       H  0.89838964  0.17397223  0.12311257     0.07700
F1431       F  0.96196024  0.06900589  0.16618034    -0.19700
F1432       F  0.99091700  0.07236543  0.11448592    -0.15900
F1433       F  0.96232062  0.02730872  0.12872104    -0.19400
F1434       F  0.85396807  0.15832182  0.05902635    -0.22800
F1435       F  0.81147935  0.12620850  0.07841458    -0.24300
F1436       F  0.83904720  0.11561532  0.02671539    -0.18300
F1437       F  0.88339114  0.23584036  0.19504629    -0.20800
F1438       F  0.85376913  0.25072289  0.14654962    -0.21900
F1439       F  0.90719553  0.22757476  0.14111191    -0.19100
F1440       F  0.78675813  0.09805716  0.18238613    -0.19200
F1441       F  0.84253852  0.08004769  0.17733930    -0.23000
F1442       F  0.80954852  0.08529320  0.12898630    -0.24600
C1443       C  0.85794549  0.41142917  0.42322371    -0.11500
C1444       C  0.87680458  0.39939181  0.39361997     0.11100
C1445       C  0.91192785  0.40814995  0.38781203    -0.03300
C1446       C  0.92749087  0.42798195  0.41298673    -0.06000
C1447       C  0.90918471  0.43902158  0.44361605    -0.16800
C1448       C  0.87358559  0.43064402  0.44888606     0.02100
C1449       C  0.85869905  0.37726110  0.36961225     0.12100
C1450       C  0.93285746  0.39654523  0.35529849     0.62700
H1451       H  0.95436847  0.43492002  0.40896838     0.12100
C1452       C  0.85244042  0.44016983  0.48206317     0.54800
H1453       H  0.83093336  0.40470736  0.42649487     0.07900
C1454       C  0.85606340  0.34412201  0.37727647    -0.05900
C1455       C  0.83719220  0.32478164  0.35425363    -0.06600
C1456       C  0.82023724  0.33743386  0.32421684    -0.16200
C1457       C  0.82219088  0.37116820  0.31730136    -0.01800
C1458       C  0.84152764  0.39036025  0.34031721    -0.09300
C1459       C  0.87262046  0.32933947  0.41003380     0.64900
H1460       H  0.83549200  0.29933200  0.35992619     0.10400
C1461       C  0.80412763  0.38734441  0.28622316     0.63300
H1462       H  0.84333670  0.41601921  0.33584065     0.07700
F1463       F  0.87012735  0.42971724  0.51169523    -0.19700
F1464       F  0.81981673  0.42648843  0.48284910    -0.15900
F1465       F  0.84707848  0.47328428  0.48356405    -0.19400
F1466       F  0.91625028  0.40680086  0.32498795    -0.22800
F1467       F  0.93575565  0.36325364  0.35489450    -0.24300
F1468       F  0.96637830  0.40834447  0.35461716    -0.18300
F1469       F  0.76846203  0.38260602  0.28848551    -0.20800
F1470       F  0.81769438  0.37472512  0.25468923    -0.21900
F1471       F  0.80883524  0.42031494  0.28570782    -0.19100
F1472       F  0.86780777  0.29644068  0.41193502    -0.19200
F1473       F  0.85772139  0.34342508  0.44020073    -0.23000
F1474       F  0.90823760  0.33421484  0.40970837    -0.24600
C1475       C  0.90939078  0.12290691  0.40698174    -0.11500
C1476       C  0.88596769  0.10559376  0.38680204     0.11100
C1477       C  0.88564990  0.07163412  0.38959738    -0.03300
C1478       C  0.90856221  0.05617851  0.41343797    -0.06000
C1479       C  0.93112588  0.07356011  0.43521477    -0.16800
C1480       C  0.93124723  0.10780796  0.43199880     0.02100
C1481       C  0.86197443  0.12415044  0.36322194     0.12100
C1482       C  0.86063303  0.05195420  0.36807262     0.62700
H1483       H  0.90815661  0.03020288  0.41586385     0.12100
C1484       C  0.95352013  0.12886488  0.45494214     0.54800
H1485       H  0.90942864  0.14882875  0.40369661     0.07900
C1486       C  0.83271104  0.14249649  0.37676422    -0.05900
C1487       C  0.81337986  0.16225703  0.35344181    -0.06600
C1488       C  0.82188350  0.16357800  0.31714986    -0.16200
C1489       C  0.85008460  0.14383094  0.30337891    -0.01800
C1490       C  0.87008262  0.12493337  0.32691379    -0.09300
C1491       C  0.82233413  0.14157205  0.41578415     0.64900
H1492       H  0.79182483  0.17750282  0.36354778     0.10400
C1493       C  0.85989966  0.14343860  0.26431134     0.63300
H1494       H  0.89286261  0.11104855  0.31727444     0.07700
F1495       F  0.94411213  0.12886157  0.98853143    -0.19700
F1496       F  0.95137855  0.16291584  0.94353705    -0.15900
F1497       F  0.98969610  0.12166353  0.94986930    -0.19400
F1498       F  0.86785045  0.05543952  0.33232719    -0.22800
F1499       F  0.82645755  0.06241315  0.37516133    -0.24300
F1500       F  0.86339020  0.01939448  0.37588380    -0.18300
F1501       F  0.88778732  0.12223477  0.25660031    -0.20800
F1502       F  0.86938790  0.17384712  0.25387681    -0.21900
F1503       F  0.83166371  0.13380813  0.24508945    -0.19100
F1504       F  0.79099090  0.15834182  0.42264234    -0.19200
F1505       F  0.84786154  0.15528783  0.43585379    -0.23000
F1506       F  0.81837322  0.10999799  0.42635281    -0.24600
C1507       C  0.57322475  0.36600000  0.40747789    -0.11500
C1508       C  0.60067311  0.37841094  0.38714432     0.11100
C1509       C  0.60568753  0.41201145  0.38612039    -0.03300
C1510       C  0.58365116  0.43219797  0.40702988    -0.06000
C1511       C  0.55697607  0.41988036  0.42869291    -0.16800
C1512       C  0.55122366  0.38620408  0.42875511     0.02100
C1513       C  0.62246527  0.35601963  0.36501843     0.12100
C1514       C  0.63380437  0.42658642  0.36262441     0.62700
H1515       H  0.58770204  0.45791492  0.40713838     0.12100
C1516       C  0.52227802  0.37146079  0.45092688     0.54800
H1517       H  0.56956175  0.34021494  0.40686415     0.07900
C1518       C  0.65232589  0.33921667  0.37795127    -0.05900
C1519       C  0.67432201  0.32197230  0.35363752    -0.06600
C1520       C  0.66636346  0.32050397  0.31749635    -0.16200
C1521       C  0.63501086  0.33594021  0.30529933    -0.01800
C1522       C  0.61361642  0.35333512  0.32956767    -0.09300
C1523       C  0.66074339  0.33987059  0.41707201     0.64900
H1524       H  0.69787190  0.30954386  0.36262462     0.10400
C1525       C  0.62459246  0.33565997  0.26666478     0.63300
H1526       H  0.59003263  0.36594777  0.32093221     0.07700
F1527       F  0.51756959  0.33952440  0.44183342    -0.19700
F1528       F  0.49090274  0.38820653  0.44587882    -0.15900
F1529       F  0.53062416  0.37250215  0.48635836    -0.19400
F1530       F  0.62531539  0.42281084  0.32747385    -0.22800
F1531       F  0.66599886  0.41153787  0.36838056    -0.24300
F1532       F  0.63700471  0.45923465  0.36920478    -0.18300
F1533       F  0.59593076  0.35600732  0.26045833    -0.20800
F1534       F  0.61592670  0.30486472  0.25662296    -0.21900
F1535       F  0.65198098  0.34602119  0.24578963    -0.19100
F1536       F  0.69046234  0.32127276  0.42432579    -0.19200
F1537       F  0.63310742  0.32787844  0.43661988    -0.23000
F1538       F  0.66621317  0.37118473  0.42785669    -0.24600
C1539       C  0.84187283  0.33994924  0.12343980    -0.11500
C1540       C  0.87114111  0.35539762  0.13649564     0.11100
C1541       C  0.88029010  0.35139118  0.17226671    -0.03300
C1542       C  0.86024049  0.33108108  0.19373522    -0.06000
C1543       C  0.83069207  0.31539968  0.18098919    -0.16800
C1544       C  0.82130959  0.31987334  0.14498014     0.02100
C1545       C  0.89161790  0.37610106  0.11224605     0.12100
C1546       C  0.91067556  0.36912639  0.18797024     0.62700
H1547       H  0.86703985  0.32812558  0.22103450     0.12100
C1548       C  0.78992643  0.30407900  0.12887165     0.54800
H1549       H  0.83511376  0.34407783  0.09611018     0.07900
C1550       C  0.91857738  0.36312389  0.08985331    -0.05900
C1551       C  0.93829424  0.38436703  0.06925912    -0.06600
C1552       C  0.93189907  0.41814965  0.06984755    -0.16200
C1553       C  0.90374361  0.43087727  0.09160256    -0.01800
C1554       C  0.88410310  0.40941049  0.11230828    -0.09300
C1555       C  0.92655413  0.32694478  0.08784428     0.64900
H1556       H  0.95909080  0.37431395  0.05224683     0.10400
C1557       C  0.89435519  0.46669320  0.09370785     0.63300
H1558       H  0.86278784  0.41845774  0.12929175     0.07700
F1559       F  0.78970198  0.27160226  0.13688983    -0.19700
F1560       F  0.79016029  0.30676924  0.09233783    -0.15900
F1561       F  0.75949995  0.31896086  0.14178538    -0.19400
F1562       F  0.90424530  0.40205511  0.18595498    -0.22800
F1563       F  0.94144281  0.36127598  0.16959273    -0.24300
F1564       F  0.91549223  0.36142852  0.22319939    -0.18300
F1565       F  0.88433722  0.47800545  0.06094751    -0.20800
F1566       F  0.92297631  0.48306269  0.10495502    -0.21900
F1567       F  0.86697290  0.47344620  0.11743691    -0.19100
F1568       F  0.95300963  0.31926908  0.06335859    -0.19200
F1569       F  0.89701729  0.31102134  0.07794903    -0.23000
F1570       F  0.93698230  0.31566796  0.12047050    -0.24600
O1571       O  0.95107954  0.46875220  0.54624413    -0.79700
O1572       O  0.58155292  0.03466153  0.50817987    -0.79700
O1573       O  0.53317217  0.46381930  0.55110583    -0.79700
O1574       O  0.97396084  0.04052811  0.56036832    -0.79700
O1575       O  0.57494482  0.46965458  0.51057776    -0.79800
O1576       O  0.92985421  0.03146064  0.52777433    -0.79700
O1577       O  0.54408322  0.04403105  0.55197047    -0.79700
O1578       O  0.98028230  0.42371571  0.53309219    -0.79700
C1579       C  0.95593415  0.43789814  0.55086000     1.10000
C1580       C  0.57488509  0.04526832  0.53936162     1.09900
C1581       C  0.56506483  0.45994078  0.54106209     1.10000
C1582       C  0.94179478  0.04406758  0.55532688     1.09900
O1583       O  0.95930601  0.02635065  0.95551827    -0.79700
O1584       O  0.53788150  0.47265887  0.94156466    -0.79800
O1585       O  0.96151787  0.45558193  0.96731490    -0.79700
O1586       O  0.53811727  0.07464605  0.98496466    -0.79700
O1587       O  0.54292722  0.03763675  0.94353164    -0.79800
O1588       O  0.91360190  0.48327550  0.98312017    -0.79700
O1589       O  0.96699823  0.06967869  0.98793736    -0.79700
O1590       O  0.52853874  0.43502860  0.97974417    -0.79800
Co1591     Co  0.95687432  0.49719325  0.50007571     1.51500
Co1592     Co  0.55634703  0.00319049  0.97647219     1.51700
Co1593     Co  0.99728752  0.46232103  0.51402607     1.51600
Co1594     Co  0.00563936  0.05377966  0.02068568     1.51500
O1595       O  0.00796937  0.50823756  0.50284188    -1.41600
C1596       C  0.95554539  0.05652280  0.95994804     1.09900
C1597       C  0.53886395  0.44316703  0.94940187     1.10000
C1598       C  0.92796071  0.46084249  0.96480606     1.09900
C1599       C  0.54601539  0.06641955  0.95322230     1.09900
O1600       O  0.80172620  0.28188494  0.80987885    -0.79700
O1601       O  0.68057647  0.21940711  0.76697502    -0.79700
O1602       O  0.72107116  0.30307816  0.79334743    -0.79700
O1603       O  0.78957433  0.17994115  0.76540223    -0.79700
O1604       O  0.67781975  0.28305781  0.76677353    -0.79800
O1605       O  0.80431978  0.21519775  0.80517515    -0.79700
O1606       O  0.72599445  0.19549104  0.78863766    -0.79700
O1607       O  0.78349715  0.32041287  0.77488033    -0.79700
C1608       C  0.79811236  0.31177354  0.80336710     1.10000
C1609       C  0.69357527  0.20046834  0.78944903     1.09900
C1610       C  0.68878876  0.30021389  0.79118434     1.10000
C1611       C  0.80423068  0.18632416  0.79432828     1.09900
O1612       O  0.82631834  0.21963142  0.73136968    -0.79700
O1613       O  0.71176803  0.28883809  0.69931972    -0.79800
O1614       O  0.77810366  0.28951980  0.70545687    -0.79700
O1615       O  0.73315890  0.17169082  0.72170058    -0.79700
O1616       O  0.71244842  0.21620912  0.69640106    -0.79800
O1617       O  0.82458494  0.28519760  0.73717933    -0.79700
O1618       O  0.77836080  0.21773024  0.70161686    -0.79700
O1619       O  0.72801526  0.33209845  0.72908924    -0.79800
Co1620     Co  0.81011293  0.25043975  0.77053686     1.51500
Co1621     Co  0.70377272  0.25162016  0.73540232     1.51700
Co1622     Co  0.74807295  0.29459512  0.74914952     1.51600
Co1623     Co  0.75071952  0.20786322  0.74498239     1.51500
O1624       O  0.75605269  0.25072160  0.76264629    -1.41600
C1625       C  0.81073625  0.21198109  0.70337636     1.09900
C1626       C  0.71232963  0.32015440  0.70309582     1.10000
C1627       C  0.81006874  0.29463245  0.70910005     1.09900
C1628       C  0.71618257  0.18495336  0.69689145     1.09900
C1629       C  0.67216734  0.15362150  0.61335071    -0.11500
C1630       C  0.66993956  0.12089322  0.62179531     0.11100
C1631       C  0.68663335  0.10867975  0.65211245    -0.03300
C1632       C  0.70237330  0.13046738  0.67495727    -0.06000
C1633       C  0.70218877  0.16398755  0.66843746    -0.16800
C1634       C  0.68763504  0.17571185  0.63630931     0.02100
C1635       C  0.64608905  0.10099993  0.60097564     0.12100
C1636       C  0.68745080  0.07281585  0.66039419     0.62700
H1637       H  0.71403225  0.12126649  0.69890932     0.12100
C1638       C  0.68695063  0.21119002  0.62635929     0.54800
H1639       H  0.65952604  0.16201895  0.58955629     0.07900
C1640       C  0.60976343  0.10152509  0.60879946    -0.05900
C1641       C  0.58827796  0.08204651  0.58871888    -0.06600
C1642       C  0.60138280  0.06288614  0.56015910    -0.16200
C1643       C  0.63799101  0.06310226  0.55183454    -0.01800
C1644       C  0.65973202  0.08197754  0.57289705    -0.09300
C1645       C  0.59358329  0.12310377  0.63792092     0.64900
H1646       H  0.56046400  0.08260668  0.59478112     0.10400
C1647       C  0.65439289  0.04399145  0.52102669     0.63300
H1648       H  0.68763442  0.08255420  0.56730194     0.07700
F1649       F  0.67467110  0.21614962  0.59249513    -0.19700
F1650       F  0.72040911  0.22294365  0.62737796    -0.15900
F1651       F  0.66499492  0.22849986  0.64958062    -0.19400
F1652       F  0.70535411  0.05613155  0.63352769    -0.22800
F1653       F  0.65376922  0.06169879  0.66319266    -0.24300
F1654       F  0.70411210  0.06610158  0.69187330    -0.18300
F1655       F  0.69054905  0.04578347  0.51992915    -0.20800
F1656       F  0.63990884  0.06213453  0.99122198    -0.21900
F1657       F  0.64923951  0.01636442  0.02252868    -0.19100
F1658       F  0.55784117  0.11923074  0.64178874    -0.19200
F1659       F  0.59881645  0.15511007  0.62993686    -0.23000
F1660       F  0.60876952  0.11596419  0.66997743    -0.24600
C1661       C  0.58020824  0.10864410  0.87043705    -0.11500
C1662       C  0.60661710  0.12695503  0.88489558     0.11100
C1663       C  0.61040049  0.12823052  0.92207885    -0.03300
C1664       C  0.58828400  0.10969675  0.94355926    -0.06000
C1665       C  0.56361519  0.08923891  0.92895429    -0.16800
C1666       C  0.55904342  0.08907765  0.89167659     0.02100
C1667       C  0.62934667  0.14516427  0.86028109     0.12100
C1668       C  0.63852339  0.14811497  0.93882421     0.62700
H1669       H  0.59146928  0.10972075  0.97201725     0.12100
C1670       C  0.53251838  0.06813217  0.87397573     0.54800
H1671       H  0.57728722  0.10885274  0.84194698     0.07900
C1672       C  0.65799108  0.13029906  0.84139382    -0.05900
C1673       C  0.67856556  0.14941972  0.81897580    -0.06600
C1674       C  0.67089892  0.18248636  0.81438455    -0.16200
C1675       C  0.64184438  0.19709447  0.83302909    -0.01800
C1676       C  0.62128597  0.17796859  0.85532294    -0.09300
C1677       C  0.66658653  0.09441374  0.84468810     0.64900
H1678       H  0.70057991  0.13852033  0.80428109     0.10400
C1679       C  0.63391007  0.23302643  0.83131977     0.63300
H1680       H  0.59881430  0.18856967  0.86955358     0.07700
F1681       F  0.54411562  0.03620880  0.87441759    -0.18500
F1682       F  0.52753163  0.07681331  0.83903533    -0.15900
F1683       F  0.50051609  0.07125977  0.89147989    -0.19400
F1684       F  0.63396114  0.18022642  0.92986224    -0.22800
F1685       F  0.67126409  0.13710821  0.92698443    -0.24300
F1686       F  0.63752577  0.14614596  0.97540746    -0.18300
F1687       F  0.60807463  0.24297317  0.85558055    -0.20800
F1688       F  0.62270982  0.24137887  0.79792848    -0.21900
F1689       F  0.66396023  0.24901560  0.83903379    -0.19100
F1690       F  0.69570165  0.08501139  0.82429184    -0.19200
F1691       F  0.63867556  0.07685713  0.83348631    -0.23000
F1692       F  0.67332254  0.08686475  0.87954219    -0.24600
C1693       C  0.64025749  0.40431493  0.57297124    -0.11500
C1694       C  0.63256411  0.40315287  0.60918027     0.11100
C1695       C  0.60460444  0.42249460  0.62364999    -0.03300
C1696       C  0.58374682  0.44118845  0.60058608    -0.06000
C1697       C  0.59035701  0.44150224  0.56375896    -0.16800
C1698       C  0.61960561  0.42278069  0.54967495     0.02100
C1699       C  0.65435263  0.38113035  0.63121630     0.12100
C1700       C  0.59696788  0.42321481  0.66328572     0.62700
H1701       H  0.56187928  0.45568983  0.61126004     0.12100
C1702       C  0.62853803  0.42046064  0.51028729     0.54800
H1703       H  0.66244542  0.38976687  0.56302748     0.07900
C1704       C  0.64816364  0.34774968  0.63343980    -0.05900
C1705       C  0.66870387  0.32868716  0.65623241    -0.06600
C1706       C  0.69510013  0.34184490  0.67677629    -0.16200
C1707       C  0.70242170  0.37524094  0.67297783    -0.01800
C1708       C  0.68195953  0.39407844  0.64980326    -0.09300
C1709       C  0.61985482  0.33238273  0.61193657     0.64900
H1710       H  0.66348208  0.30327837  0.65886712     0.10400
C1711       C  0.73109582  0.39154998  0.69322331     0.63300
H1712       H  0.68661318  0.41956519  0.64668642     0.07700
F1713       F  0.60002385  0.40970061  0.49234345    -0.19700
F1714       F  0.65629715  0.39895426  0.50309235    -0.15900
F1715       F  0.63791781  0.45019398  0.49750446    -0.19400
F1716       F  0.62550201  0.43468368  0.68082652    -0.22800
F1717       F  0.59033686  0.39248097  0.67519200    -0.24300
F1718       F  0.56819552  0.44305057  0.67193298    -0.18300
F1719       F  0.76251847  0.37429097  0.68893268    -0.20800
F1720       F  0.72186719  0.39359291  0.72877639    -0.21900
F1721       F  0.73634178  0.42262896  0.68141186    -0.19100
F1722       F  0.61682211  0.29995936  0.61962680    -0.19200
F1723       F  0.62784468  0.33497765  0.57623552    -0.23000
F1724       F  0.58779077  0.34771437  0.61904531    -0.24600
C1725       C  0.90555346  0.09701975  0.63164434    -0.11500
C1726       C  0.87894817  0.11441203  0.61446821     0.11100
C1727       C  0.87328362  0.10903053  0.57810786    -0.03300
C1728       C  0.89246187  0.08384591  0.56089040    -0.06000
C1729       C  0.91985261  0.06669650  0.57768044    -0.16800
C1730       C  0.92756582  0.07443276  0.61344632     0.02100
C1731       C  0.85970948  0.14009533  0.63487185     0.12100
C1732       C  0.84936778  0.13146691  0.55704387     0.62700
H1733       H  0.88793142  0.07907264  0.53313184     0.12100
C1734       C  0.96001265  0.06123194  0.63193949     0.54800
H1735       H  0.91021021  0.10286928  0.65912569     0.07900
C1736       C  0.82777088  0.13435531  0.65282667    -0.05900
C1737       C  0.81170540  0.15968162  0.67257888    -0.06600
C1738       C  0.82776854  0.18943057  0.67723516    -0.16200
C1739       C  0.86038919  0.19473746  0.66005449    -0.01800
C1740       C  0.87548136  0.16998135  0.63851205    -0.09300
C1741       C  0.81232605  0.10096589  0.65360384     0.64900
H1742       H  0.78747310  0.15546302  0.68686526     0.10400
C1743       C  0.87887407  0.22635431  0.66368944     0.63300
H1744       H  0.90034678  0.17338136  0.62487546     0.07700
F1745       F  0.95974465  0.06943301  0.66752805    -0.19700
F1746       F  0.98955660  0.07399300  0.61640184    -0.15900
F1747       F  0.96231420  0.02802562  0.62961684    -0.19400
F1748       F  0.86198968  0.16233668  0.55808900    -0.22800
F1749       F  0.81569960  0.13214349  0.57109229    -0.24300
F1750       F  0.84785557  0.12207178  0.52188929    -0.18300
F1751       F  0.88691978  0.23186444  0.69864643    -0.20800
F1752       F  0.85742965  0.25120602  0.65189631    -0.21900
F1753       F  0.90975810  0.22648640  0.64386052    -0.19100
F1754       F  0.78023445  0.10108603  0.67129044    -0.19200
F1755       F  0.83493297  0.07988783  0.67082763    -0.23000
F1756       F  0.80748542  0.08954562  0.61971362    -0.24600
C1757       C  0.85516754  0.41044352  0.92714636    -0.11500
C1758       C  0.86934722  0.40179111  0.89392139     0.11100
C1759       C  0.90194945  0.41406314  0.88283836    -0.03300
C1760       C  0.92029403  0.43350013  0.90654769    -0.06000
C1761       C  0.90660609  0.44143524  0.94043261    -0.16800
C1762       C  0.87325890  0.42984431  0.95083672     0.02100
C1763       C  0.84994136  0.37859980  0.87206710     0.12100
C1764       C  0.91688885  0.40686757  0.84597295     0.62700
H1765       H  0.94546664  0.44278876  0.89872954     0.12100
C1766       C  0.85747355  0.43620716  0.98750251     0.54800
H1767       H  0.82999528  0.40104269  0.93469246     0.07900
C1768       C  0.85491477  0.34489696  0.87598769    -0.05900
C1769       C  0.83723488  0.32421214  0.85327400    -0.06600
C1770       C  0.81347931  0.33594933  0.82787456    -0.16200
C1771       C  0.80602848  0.36988835  0.82654712    -0.01800
C1772       C  0.82501759  0.39058346  0.84834032    -0.09300
C1773       C  0.87824642  0.33087937  0.90465521     0.64900
H1774       H  0.84214324  0.29844942  0.85525584     0.10400
C1775       C  0.77791230  0.38457930  0.80305982     0.63300
H1776       H  0.82069850  0.41647297  0.84699233     0.07700
F1777       F  0.88142609  0.42698593  0.01266770    -0.19700
F1778       F  0.82753000  0.41894907  0.99358858    -0.15900
F1779       F  0.84856442  0.46861683  0.99151331    -0.19400
F1780       F  0.89407524  0.41897296  0.82096772    -0.22800
F1781       F  0.92139926  0.37395666  0.84088343    -0.24300
F1782       F  0.94902059  0.42074169  0.84050872    -0.18300
F1783       F  0.74668411  0.36917521  0.80865718    -0.20800
F1784       F  0.78827326  0.38166778  0.76788414    -0.21900
F1785       F  0.77170661  0.41706876  0.81025499    -0.19100
F1786       F  0.88005159  0.29749449  0.90354079    -0.19200
F1787       F  0.86497812  0.34020952  0.93758910    -0.23000
F1788       F  0.91190705  0.34178267  0.90077481    -0.24600
C1789       C  0.91020611  0.12348998  0.90583384    -0.11500
C1790       C  0.88835277  0.10510331  0.88483692     0.11100
C1791       C  0.89050737  0.07107040  0.88669162    -0.03300
C1792       C  0.91340332  0.05670588  0.91102739    -0.06000
C1793       C  0.93408889  0.07498282  0.93375081    -0.16800
C1794       C  0.93276450  0.10920221  0.93079551     0.02100
C1795       C  0.86356109  0.12256737  0.86125588     0.12100
C1796       C  0.86823542  0.04986234  0.86378612     0.62700
H1797       H  0.91455282  0.03069454  0.91291134     0.12100
C1798       C  0.95471243  0.13086011  0.95341294     0.54800
H1799       H  0.90873494  0.14945761  0.90295561     0.07900
C1800       C  0.83360124  0.13989516  0.87479564    -0.05900
C1801       C  0.81382871  0.15928086  0.85155609    -0.06600
C1802       C  0.82236638  0.16091578  0.81530593    -0.16200
C1803       C  0.85072910  0.14147651  0.80135440    -0.01800
C1804       C  0.87149107  0.12338127  0.82491902    -0.09300
C1805       C  0.82300979  0.13851436  0.91373412     0.64900
H1806       H  0.79198616  0.17411941  0.86174277     0.10400
C1807       C  0.85999437  0.14058773  0.76212809     0.63300
H1808       H  0.89480075  0.11030736  0.81527976     0.07700
F1809       F  0.94217901  0.12717564  0.48987511    -0.19700
F1810       F  0.95145606  0.16096344  0.44505225    -0.15900
F1811       F  0.98821797  0.11876356  0.45196994    -0.19400
F1812       F  0.87678064  0.05404197  0.82843837    -0.22800
F1813       F  0.83315610  0.05787623  0.86943582    -0.24300
F1814       F  0.87329859  0.01739676  0.87134335    -0.18300
F1815       F  0.88836328  0.11989363  0.75451278    -0.20800
F1816       F  0.86850368  0.17100151  0.75087002    -0.21900
F1817       F  0.83180467  0.12994077  0.74344357    -0.19100
F1818       F  0.79038155  0.15313305  0.92014812    -0.19200
F1819       F  0.84707851  0.15418409  0.93391069    -0.23000
F1820       F  0.82153451  0.10674520  0.92450837    -0.24600
C1821       C  0.56980300  0.36510255  0.90363547    -0.11500
C1822       C  0.60038404  0.37546832  0.88676985     0.11100
C1823       C  0.60922657  0.40829100  0.88832501    -0.03300
C1824       C  0.58726157  0.42977151  0.90781595    -0.06000
C1825       C  0.55720853  0.41940010  0.92584946    -0.16800
C1826       C  0.54796183  0.38653821  0.92362265     0.02100
C1827       C  0.62080561  0.35238633  0.86420468     0.12100
C1828       C  0.64177176  0.42057899  0.86952633     0.62700
H1829       H  0.59413735  0.45480525  0.91011031     0.12100
C1830       C  0.51519607  0.37407185  0.94170668     0.54800
H1831       H  0.56335648  0.33994948  0.90111194     0.07900
C1832       C  0.64970828  0.33404446  0.87676394    -0.05900
C1833       C  0.67188104  0.31787980  0.85190769    -0.06600
C1834       C  0.66394614  0.31732640  0.81575518    -0.16200
C1835       C  0.63264682  0.33305511  0.80393231    -0.01800
C1836       C  0.61186570  0.35071965  0.82860450    -0.09300
C1837       C  0.65616201  0.33075801  0.91612132     0.64900
H1838       H  0.69518005  0.30484456  0.86061093     0.10400
C1839       C  0.62177958  0.33282496  0.76540113     0.63300
H1840       H  0.58883921  0.36435389  0.82021052     0.07700
F1841       F  0.50819356  0.34307445  0.93071528    -0.19700
F1842       F  0.48655779  0.39376667  0.93377199    -0.15900
F1843       F  0.51937210  0.37342452  0.97796787    -0.19400
F1844       F  0.64006828  0.41482697  0.83354390    -0.22800
F1845       F  0.67142762  0.40508282  0.88236147    -0.24300
F1846       F  0.64519979  0.45342423  0.87447969    -0.18300
F1847       F  0.59202757  0.35200486  0.75994496    -0.20800
F1848       F  0.61443544  0.30181380  0.75494164    -0.21900
F1849       F  0.64838920  0.34448649  0.74429227    -0.19100
F1850       F  0.68489271  0.31059689  0.92265549    -0.19200
F1851       F  0.62714952  0.31779738  0.93248746    -0.23000
F1852       F  0.66194585  0.36053000  0.93104537    -0.24600
C1853       C  0.84378390  0.33852661  0.62632130    -0.11500
C1854       C  0.87105860  0.35581748  0.64093363     0.11100
C1855       C  0.87748921  0.35353716  0.67754834    -0.03300
C1856       C  0.85731723  0.33271771  0.69817362    -0.06000
C1857       C  0.82995953  0.31508604  0.68382583    -0.16800
C1858       C  0.82259932  0.31840269  0.64719349     0.02100
C1859       C  0.89250071  0.37643710  0.61741540     0.12100
C1860       C  0.90514899  0.37350472  0.69499087     0.62700
H1861       H  0.86221089  0.33086255  0.72606411     0.12100
C1862       C  0.79246361  0.30159323  0.62995100     0.54800
H1863       H  0.83891551  0.34141581  0.59835196     0.07900
C1864       C  0.92146472  0.36367164  0.59757801    -0.05900
C1865       C  0.94176418  0.38486689  0.57742026    -0.06600
C1866       C  0.93394066  0.41840666  0.57586838    -0.16200
C1867       C  0.90454877  0.43098251  0.59603629    -0.01800
C1868       C  0.88427288  0.40955695  0.61614592    -0.09300
C1869       C  0.93036665  0.32764115  0.59717395     0.64900
H1870       H  0.96379911  0.37490377  0.56201059     0.10400
C1871       C  0.89452144  0.46665643  0.59723759     0.63300
H1872       H  0.86174796  0.41849718  0.63151948     0.07700
F1873       F  0.79313780  0.26909092  0.63794736    -0.19700
F1874       F  0.79376943  0.30434333  0.59343678    -0.15900
F1875       F  0.76115359  0.31554669  0.64188402    -0.19400
F1876       F  0.89637082  0.40594726  0.69181942    -0.22800
F1877       F  0.93753019  0.36731845  0.67895639    -0.24300
F1878       F  0.90799910  0.36674627  0.73070514    -0.18300
F1879       F  0.88501066  0.47718522  0.56402899    -0.20800
F1880       F  0.92259532  0.48362601  0.60876362    -0.21900
F1881       F  0.86660948  0.47342254  0.62033904    -0.19100
F1882       F  0.96089661  0.32036124  0.57800452    -0.19200
F1883       F  0.90344667  0.31134401  0.58188626    -0.23000
F1884       F  0.93482936  0.31653836  0.63129889    -0.24600
O1885       O  0.94998829  0.96890068  0.04192468    -0.79700
O1886       O  0.58238791  0.53361322  0.00906693    -0.79700
O1887       O  0.53172320  0.96164604  0.04757726    -0.79700
O1888       O  0.97397804  0.54022505  0.05917277    -0.79700
O1889       O  0.57497493  0.96830183  0.00862272    -0.79800
O1890       O  0.93047813  0.53281957  0.02540516    -0.79700
O1891       O  0.54393497  0.54191655  0.05208416    -0.79700
O1892       O  0.97794242  0.92361703  0.02702844    -0.79700
C1893       C  0.95407599  0.93784688  0.04537698     1.10000
C1894       C  0.57500340  0.54348615  0.04051421     1.09900
C1895       C  0.56389017  0.95787078  0.03831993     1.10000
C1896       C  0.94195171  0.54436971  0.05379857     1.09900
O1897       O  0.95599860  0.52438997  0.45749855    -0.79700
O1898       O  0.53559964  0.97235844  0.44432688    -0.79800
O1899       O  0.96229269  0.95375412  0.47258470    -0.79700
O1900       O  0.53598844  0.57510111  0.48452312    -0.79700
O1901       O  0.54166803  0.53770176  0.44378464    -0.79800
O1902       O  0.91329616  0.98015358  0.48786477    -0.79700
O1903       O  0.96495844  0.56829917  0.48872190    -0.79700
O1904       O  0.52956753  0.93511989  0.48365456    -0.79800
Co1905     Co  0.95751598  0.99848939  0.99706421     1.51500
Co1906     Co  0.55522530  0.50357322  0.47745857     1.51700
Co1907     Co  0.99630591  0.96219700  0.00982351     1.51600
Co1908     Co  0.00460465  0.55415143  0.52116215     1.51500
O1909       O  0.00864824  0.00808573  0.00114913    -1.41600
C1910       C  0.95266751  0.55473832  0.46132333     1.09900
C1911       C  0.53835435  0.94307112  0.45270805     1.10000
C1912       C  0.92870234  0.95820405  0.46962385     1.09900
C1913       C  0.54464204  0.56672426  0.45299241     1.09900
O1914       O  0.80429939  0.78420668  0.30803166    -0.79700
O1915       O  0.68007128  0.72347143  0.26774693    -0.79700
O1916       O  0.72354687  0.80647928  0.29425413    -0.79700
O1917       O  0.78789206  0.68193990  0.26763918    -0.79700
O1918       O  0.67979921  0.78648921  0.26838506    -0.79800
O1919       O  0.80530617  0.71793782  0.30538755    -0.79700
O1920       O  0.72458149  0.70068197  0.29151553    -0.79700
O1921       O  0.78641431  0.82285055  0.27321268    -0.79700
C1922       C  0.80224859  0.81398500  0.30090780     1.10000
C1923       C  0.69208973  0.70589738  0.29188109     1.09900
C1924       C  0.69119549  0.80333937  0.29284662     1.10000
C1925       C  0.80381874  0.68881383  0.29574654     1.09900
O1926       O  0.82612793  0.72012836  0.23128528    -0.79700
O1927       O  0.71217871  0.79203454  0.20010207    -0.79800
O1928       O  0.77830241  0.79203633  0.20472024    -0.79700
O1929       O  0.72988004  0.67455218  0.22447041    -0.79700
O1930       O  0.71203139  0.71923335  0.19751060    -0.79800
O1931       O  0.82580062  0.78585979  0.23476882    -0.79700
O1932       O  0.77764418  0.71762056  0.20244106    -0.79700
O1933       O  0.72921483  0.83536482  0.22933424    -0.79800
Co1934     Co  0.81121265  0.75210237  0.26949754     1.51500
Co1935     Co  0.70428966  0.75495827  0.23622409     1.51700
Co1936     Co  0.74942416  0.79761461  0.24920800     1.51600
Co1937     Co  0.74973277  0.71042391  0.24667931     1.51500
O1938       O  0.75703747  0.75349013  0.26257159    -1.41600
C1939       C  0.81012143  0.71199936  0.20378869     1.09900
C1940       C  0.71262801  0.82333848  0.20392800     1.10000
C1941       C  0.81068668  0.79585539  0.20720487     1.09900
C1942       C  0.71345752  0.68790755  0.19922853     1.09900
C1943       C  0.66082725  0.65610741  0.12102423    -0.11500
C1944       C  0.66393340  0.62276004  0.12682910     0.11100
C1945       C  0.68552674  0.61095739  0.15408842    -0.03300
C1946       C  0.70201407  0.63319429  0.17589433    -0.06000
C1947       C  0.69768134  0.66690319  0.17163799    -0.16800
C1948       C  0.67707872  0.67862961  0.14301539     0.02100
C1949       C  0.64195352  0.60098734  0.10577335     0.12100
C1950       C  0.69124501  0.57495703  0.16009218     0.62700
H1951       H  0.71817054  0.62404868  0.19701791     0.12100
C1952       C  0.67133822  0.71443201  0.13565800     0.54800
H1953       H  0.64434098  0.66434412  0.09967453     0.07900
C1954       C  0.60666637  0.59597785  0.11554859    -0.05900
C1955       C  0.58695271  0.57565184  0.09443710    -0.06600
C1956       C  0.60061483  0.56079782  0.06310796    -0.16200
C1957       C  0.63654442  0.56523357  0.05398158    -0.01800
C1958       C  0.65651983  0.58531165  0.07567503    -0.09300
C1959       C  0.58951189  0.61275629  0.14772569     0.64900
H1960       H  0.55987119  0.57229802  0.10193950     0.10400
C1961       C  0.65403618  0.54929772  0.02168252     0.63300
H1962       H  0.68368847  0.58952839  0.06895520     0.07700
F1963       F  0.65112300  0.71984522  0.10610245    -0.19700
F1964       F  0.70324702  0.72849080  0.12953957    -0.15900
F1965       F  0.65412487  0.72935208  0.16417238    -0.19400
F1966       F  0.70962955  0.56151804  0.13148872    -0.22800
F1967       F  0.65952084  0.56005920  0.16376557    -0.24300
F1968       F  0.71014966  0.56866306  0.19033599    -0.18300
F1969       F  0.68975992  0.55407038  0.02037465    -0.20800
F1970       F  0.64191934  0.55610866  0.48939326    -0.21900
F1971       F  0.64640559  0.51188209  0.52411063    -0.19100
F1972       F  0.55564525  0.60288318  0.15388972    -0.19200
F1973       F  0.58807579  0.64573407  0.14247015    -0.23000
F1974       F  0.60851362  0.60607233  0.17772913    -0.24600
C1975       C  0.59026841  0.60588860  0.37291080    -0.11500
C1976       C  0.60252355  0.63405843  0.38832903     0.11100
C1977       C  0.59164726  0.64233084  0.42328981    -0.03300
C1978       C  0.57247032  0.61991293  0.44318949    -0.06000
C1979       C  0.56184416  0.59042333  0.42861129    -0.16800
C1980       C  0.56937368  0.58422951  0.39199239     0.02100
C1981       C  0.62629536  0.65438554  0.36658539     0.12100
C1982       C  0.59895224  0.67521665  0.43888298     0.62700
H1983       H  0.56556778  0.62549863  0.47053496     0.12100
C1984       C  0.55525680  0.55542774  0.37246476     0.54800
H1985       H  0.59772634  0.60079799  0.34557326     0.07900
C1986       C  0.66285552  0.64769733  0.36380743    -0.05900
C1987       C  0.68322293  0.66577601  0.34002622    -0.06600
C1988       C  0.66838323  0.69008883  0.31853336    -0.16200
C1989       C  0.63160325  0.69744516  0.32243399    -0.01800
C1990       C  0.61140735  0.67918494  0.34627401    -0.09300
C1991       C  0.68023759  0.62117915  0.38556201     0.64900
H1992       H  0.71106711  0.66033939  0.33747145     0.10400
C1993       C  0.61313711  0.72435043  0.30206895     0.63300
H1994       H  0.58336849  0.68361109  0.34879374     0.07700
F1995       F  0.57190823  0.52726730  0.38359830    -0.18500
F1996       F  0.56065766  0.55765965  0.33620539    -0.15900
F1997       F  0.51950953  0.55389386  0.37867526    -0.19400
F1998       F  0.58055335  0.69871034  0.42038592    -0.22800
F1999       F  0.63429143  0.68125261  0.43649553    -0.24300
F2000       F  0.58865141  0.67753478  0.47418149    -0.18300
F2001       F  0.57832832  0.72867305  0.31252604    -0.20800
F2002       F  0.61387388  0.71724265  0.26624573    -0.21900
F2003       F  0.62936364  0.75309548  0.30809816    -0.19100
F2004       F  0.71603664  0.61866244  0.37902651    -0.19200
F2005       F  0.66618582  0.59180568  0.37746585    -0.23000
F2006       F  0.67484276  0.62755682  0.42123274    -0.24600
C2007       C  0.63557867  0.89974301  0.07201188    -0.11500
C2008       C  0.63119971  0.90387901  0.10858290     0.11100
C2009       C  0.60634625  0.92707396  0.12204379    -0.03300
C2010       C  0.58504151  0.94421443  0.09812214    -0.06000
C2011       C  0.58856374  0.93954750  0.06137196    -0.16800
C2012       C  0.61471616  0.91705138  0.04787543     0.02100
C2013       C  0.65250620  0.88279374  0.13210588     0.12100
C2014       C  0.60261065  0.93382455  0.16148816     0.62700
H2015       H  0.56556611  0.96178093  0.10798446     0.12100
C2016       C  0.61971464  0.90961140  0.00856603     0.54800
H2017       H  0.65525575  0.88213818  0.06261076     0.07900
C2018       C  0.64320480  0.85075652  0.13956986    -0.05900
C2019       C  0.66464004  0.83206165  0.16187208    -0.06600
C2020       C  0.69393087  0.84475015  0.17834681    -0.16200
C2021       C  0.70257710  0.87741266  0.17157898    -0.01800
C2022       C  0.68228284  0.89535116  0.14739290    -0.09300
C2023       C  0.61035638  0.83657389  0.12462004     0.64900
H2024       H  0.65778072  0.80746408  0.16764460     0.10400
C2025       C  0.73215914  0.89397040  0.19011478     0.63300
H2026       H  0.68871158  0.91993867  0.14105385     0.07700
F2027       F  0.58856790  0.89963738  0.99502692    -0.19700
F2028       F  0.64462078  0.88513088  0.00227949    -0.15900
F2029       F  0.63071326  0.93656850  0.99063001    -0.19400
F2030       F  0.63315341  0.94661960  0.17361516    -0.22800
F2031       F  0.59622003  0.90562989  0.17954574    -0.24300
F2032       F  0.57531931  0.95568017  0.16914196    -0.18300
F2033       F  0.76314209  0.87605278  0.18591199    -0.20800
F2034       F  0.72385684  0.89750146  0.22576310    -0.21900
F2035       F  0.73763822  0.92447068  0.17670818    -0.19100
F2036       F  0.60426842  0.80625180  0.13819089    -0.19200
F2037       F  0.61371552  0.83381822  0.08823303    -0.23000
F2038       F  0.58146402  0.85629466  0.13299622    -0.24600
C2039       C  0.90751030  0.59733185  0.13149798    -0.11500
C2040       C  0.87922788  0.61361065  0.11579286     0.11100
C2041       C  0.87098237  0.60662861  0.08030604    -0.03300
C2042       C  0.89050518  0.58204981  0.06219348    -0.06000
C2043       C  0.91974783  0.56619718  0.07733478    -0.16800
C2044       C  0.92874203  0.57439468  0.11274115     0.02100
C2045       C  0.86017712  0.63928540  0.13677214     0.12100
C2046       C  0.84352976  0.62675695  0.06088499     0.62700
H2047       H  0.88440302  0.57660038  0.03494487     0.12100
C2048       C  0.96124077  0.56057815  0.13067776     0.54800
H2049       H  0.91367729  0.60393134  0.15842251     0.07900
C2050       C  0.82961644  0.63297252  0.15692546    -0.05900
C2051       C  0.81259983  0.65863742  0.17544352    -0.06600
C2052       C  0.82717481  0.68925059  0.17779409    -0.16200
C2053       C  0.85901867  0.69507199  0.15924562    -0.01800
C2054       C  0.87447502  0.67002740  0.13821739    -0.09300
C2055       C  0.81684379  0.59882789  0.16136075     0.64900
H2056       H  0.78894154  0.65419716  0.19079105     0.10400
C2057       C  0.87607006  0.72760010  0.16055610     0.63300
H2058       H  0.89839374  0.67399153  0.12310478     0.07700
F2059       F  0.96197105  0.56902491  0.16616844    -0.19700
F2060       F  0.99092415  0.57237347  0.11447109    -0.15900
F2061       F  0.96232110  0.52732248  0.12871640    -0.19400
F2062       F  0.85396572  0.65833512  0.05901890    -0.22800
F2063       F  0.81148273  0.62621757  0.07841147    -0.24300
F2064       F  0.83904701  0.61562665  0.02670985    -0.18300
F2065       F  0.88339239  0.73585300  0.19504057    -0.20800
F2066       F  0.85376153  0.75073857  0.14655060    -0.21900
F2067       F  0.90718982  0.72759684  0.14110143    -0.19100
F2068       F  0.78676001  0.59806616  0.18235870    -0.19200
F2069       F  0.84254770  0.58006849  0.17735089    -0.23000
F2070       F  0.80958525  0.58529220  0.12897631    -0.24600
C2071       C  0.85794091  0.91143396  0.42323775    -0.11500
C2072       C  0.87680188  0.89938597  0.39363998     0.11100
C2073       C  0.91192741  0.90813842  0.38783391    -0.03300
C2074       C  0.92749119  0.92797267  0.41300585    -0.06000
C2075       C  0.90918306  0.93902329  0.44362931    -0.16800
C2076       C  0.87358019  0.93065533  0.44889518     0.02100
C2077       C  0.85869358  0.87725688  0.36963161     0.12100
C2078       C  0.93285796  0.89652778  0.35532352     0.62700
H2079       H  0.95437066  0.93490589  0.40898853     0.12100
C2080       C  0.85242817  0.94020146  0.48206149     0.54800
H2081       H  0.83092663  0.90471789  0.42650675     0.07900
C2082       C  0.85604828  0.84411882  0.37729700    -0.05900
C2083       C  0.83717730  0.82478093  0.35427039    -0.06600
C2084       C  0.82023382  0.83743436  0.32422699    -0.16200
C2085       C  0.82219621  0.87116795  0.31731171    -0.01800
C2086       C  0.84153085  0.89035751  0.34033224    -0.09300
C2087       C  0.87259799  0.82933459  0.41005732     0.64900
H2088       H  0.83547004  0.79933201  0.35994380     0.10400
C2089       C  0.80414630  0.88734564  0.28622711     0.63300
H2090       H  0.84334656  0.91601577  0.33585481     0.07700
F2091       F  0.87010049  0.92975348  0.51170425    -0.19700
F2092       F  0.81979756  0.92653336  0.48284295    -0.15900
F2093       F  0.84708075  0.97331806  0.48354549    -0.19400
F2094       F  0.91625696  0.90678635  0.32501068    -0.22800
F2095       F  0.93574724  0.86323585  0.35492128    -0.24300
F2096       F  0.96638229  0.90831931  0.35464557    -0.18300
F2097       F  0.76847897  0.88261425  0.28847876    -0.20800
F2098       F  0.81772004  0.87472162  0.25469831    -0.21900
F2099       F  0.80886174  0.92031501  0.28571128    -0.19100
F2100       F  0.86777015  0.79643839  0.41196423    -0.19200
F2101       F  0.85770506  0.84342972  0.44022201    -0.23000
F2102       F  0.90821784  0.83419635  0.40973104    -0.24600
C2103       C  0.90939188  0.62290927  0.40698352    -0.11500
C2104       C  0.88596877  0.60559947  0.38680072     0.11100
C2105       C  0.88564725  0.57163983  0.38959327    -0.03300
C2106       C  0.90855677  0.55618048  0.41343409    -0.06000
C2107       C  0.93112115  0.57355891  0.43521338    -0.16800
C2108       C  0.93124391  0.60780715  0.43200195     0.02100
C2109       C  0.86198024  0.62415957  0.36321929     0.12100
C2110       C  0.86063207  0.55196406  0.36806192     0.62700
H2111       H  0.90814981  0.53020464  0.41585672     0.12100
C2112       C  0.95351135  0.62886174  0.45495365     0.54800
H2113       H  0.90943249  0.64883116  0.40370028     0.07900
C2114       C  0.83271707  0.64250756  0.37675935    -0.05900
C2115       C  0.81338712  0.66226611  0.35343457    -0.06600
C2116       C  0.82189410  0.66358667  0.31714365    -0.16200
C2117       C  0.85010117  0.64384537  0.30337606    -0.01800
C2118       C  0.87009434  0.62494498  0.32691236    -0.09300
C2119       C  0.82233649  0.64158506  0.41577857     0.64900
H2120       H  0.79182968  0.67751056  0.36353760     0.10400
C2121       C  0.85992910  0.64346458  0.26431147     0.63300
H2122       H  0.89287579  0.61106079  0.31727556     0.07700
F2123       F  0.94413570  0.62886526  0.98851919    -0.19700
F2124       F  0.95140130  0.66291553  0.94352135    -0.15900
F2125       F  0.98971388  0.62165901  0.94985161    -0.19400
F2126       F  0.86786321  0.55544514  0.33231848    -0.22800
F2127       F  0.82645682  0.56243133  0.37513748    -0.24300
F2128       F  0.86337748  0.51940471  0.37587742    -0.18300
F2129       F  0.88782438  0.62226839  0.25660370    -0.20800
F2130       F  0.86941316  0.67387810  0.25388985    -0.21900
F2131       F  0.83170243  0.63383342  0.24507622    -0.19100
F2132       F  0.79100201  0.65836944  0.42263637    -0.19200
F2133       F  0.84786978  0.65528670  0.43585239    -0.23000
F2134       F  0.81835692  0.61001235  0.42634300    -0.24600
C2135       C  0.57323629  0.86600281  0.40748668    -0.11500
C2136       C  0.60068089  0.87841299  0.38714736     0.11100
C2137       C  0.60569157  0.91201391  0.38611659    -0.03300
C2138       C  0.58365528  0.93220190  0.40702490    -0.06000
C2139       C  0.55698406  0.91988534  0.42869387    -0.16800
C2140       C  0.55123530  0.88620825  0.42876259     0.02100
C2141       C  0.62247180  0.85602035  0.36502146     0.12100
C2142       C  0.63380524  0.92658717  0.36261527     0.62700
H2143       H  0.58770378  0.95791944  0.40712818     0.12100
C2144       C  0.52229390  0.87146516  0.45094040     0.54800
H2145       H  0.56957597  0.84021718  0.40687825     0.07900
C2146       C  0.65233670  0.83922211  0.37795150    -0.05900
C2147       C  0.67433168  0.82197847  0.35363640    -0.06600
C2148       C  0.66636629  0.82050304  0.31749738    -0.16200
C2149       C  0.63500753  0.83593115  0.30530406    -0.01800
C2150       C  0.61361638  0.85332891  0.32957305    -0.09300
C2151       C  0.66075876  0.83987798  0.41707099     0.64900
H2152       H  0.69788525  0.80955468  0.36262112     0.10400
C2153       C  0.62457591  0.83563575  0.26667338     0.63300
H2154       H  0.59002883  0.86593694  0.32094014     0.07700
F2155       F  0.51758653  0.83952756  0.44185144    -0.19700
F2156       F  0.49091656  0.88820828  0.44589505    -0.15900
F2157       F  0.53064509  0.87251034  0.48637042    -0.19400
F2158       F  0.62531517  0.92280332  0.32746609    -0.22800
F2159       F  0.66600173  0.91154314  0.36837345    -0.24300
F2160       F  0.63700186  0.95923717  0.36918730    -0.18300
F2161       F  0.59590843  0.85597658  0.26046873    -0.20800
F2162       F  0.61591155  0.80483537  0.25664906    -0.21900
F2163       F  0.65195504  0.84599309  0.24578256    -0.19100
F2164       F  0.69048318  0.82128634  0.42432116    -0.19200
F2165       F  0.63312816  0.82787951  0.43662167    -0.23000
F2166       F  0.66622181  0.87119342  0.42785531    -0.24600
C2167       C  0.84187010  0.83995282  0.12343239    -0.11500
C2168       C  0.87114346  0.85539430  0.13648586     0.11100
C2169       C  0.88029485  0.85138511  0.17225584    -0.03300
C2170       C  0.86024145  0.83107972  0.19372581    -0.06000
C2171       C  0.83068828  0.81540416  0.18098233    -0.16800
C2172       C  0.82130339  0.81988100  0.14497393     0.02100
C2173       C  0.89161947  0.87609767  0.11223620     0.12100
C2174       C  0.91068871  0.86911034  0.18795646     0.62700
H2175       H  0.86704310  0.82812214  0.22102415     0.12100
C2176       C  0.78991585  0.80409297  0.12886670     0.54800
H2177       H  0.83511004  0.84408397  0.09610339     0.07900
C2178       C  0.91857376  0.86312055  0.08983721    -0.05900
C2179       C  0.93829174  0.88436443  0.06924565    -0.06600
C2180       C  0.93190038  0.91814729  0.06984027    -0.16200
C2181       C  0.90374576  0.93087462  0.09159680    -0.01800
C2182       C  0.88410653  0.90940730  0.11230262    -0.09300
C2183       C  0.92654277  0.82694081  0.08781710     0.64900
H2184       H  0.95908562  0.87431163  0.05222974     0.10400
C2185       C  0.89435698  0.96669047  0.09370446     0.63300
H2186       H  0.86279378  0.91845410  0.12928952     0.07700
F2187       F  0.78969808  0.77161213  0.13686585    -0.19700
F2188       F  0.79013518  0.80680214  0.09233469    -0.15900
F2189       F  0.75949260  0.81896609  0.14179936    -0.19400
F2190       F  0.90427302  0.90204089  0.18593856    -0.22800
F2191       F  0.94145202  0.86124693  0.16957827    -0.24300
F2192       F  0.91550337  0.86141333  0.22318619    -0.18300
F2193       F  0.88434393  0.97800626  0.06094403    -0.20800
F2194       F  0.92297640  0.98305838  0.10495801    -0.21900
F2195       F  0.86697095  0.97344159  0.11742976    -0.19100
F2196       F  0.95299471  0.81926634  0.06332697    -0.19200
F2197       F  0.89700132  0.81102571  0.07791937    -0.23000
F2198       F  0.93697138  0.81565400  0.12043904    -0.24600
O2199       O  0.95108340  0.96875762  0.54625126    -0.79700
O2200       O  0.58154734  0.53465343  0.50817457    -0.79700
O2201       O  0.53318159  0.96382366  0.55110691    -0.79700
O2202       O  0.97396004  0.54052301  0.56036176    -0.79700
O2203       O  0.57495368  0.96966173  0.51057888    -0.79800
O2204       O  0.92985174  0.53145469  0.52776961    -0.79700
O2205       O  0.54407820  0.54402263  0.55196519    -0.79700
O2206       O  0.98028834  0.92372121  0.53310185    -0.79700
C2207       C  0.95593874  0.93790368  0.55086821     1.10000
C2208       C  0.57488020  0.54525941  0.53935654     1.09900
C2209       C  0.56507426  0.95994644  0.54106251     1.10000
C2210       C  0.94179357  0.54406208  0.55532144     1.09900
O2211       O  0.95930625  0.52635023  0.95551653    -0.79700
O2212       O  0.53788484  0.97266353  0.94156106    -0.79800
O2213       O  0.96152030  0.95558040  0.96731319    -0.79700
O2214       O  0.53811860  0.57464289  0.98496098    -0.79700
O2215       O  0.54292787  0.53763161  0.94353011    -0.79800
O2216       O  0.91360373  0.98327223  0.98311870    -0.79700
O2217       O  0.96700374  0.56967969  0.98793174    -0.79700
O2218       O  0.52854595  0.93503078  0.97973862    -0.79800
Co2219     Co  0.95687722  0.99719817  0.50008233     1.51500
Co2220     Co  0.55634369  0.50318686  0.97647420     1.51700
Co2221     Co  0.99729238  0.96232565  0.51403206     1.51600
Co2222     Co  0.00564108  0.55377998  0.02068338     1.51500
O2223       O  0.00797164  0.00824213  0.50284732    -1.41600
C2224       C  0.95554998  0.55652314  0.95994341     1.09900
C2225       C  0.53886753  0.94317106  0.94939577     1.10000
C2226       C  0.92796282  0.96083919  0.96480471     1.09900
C2227       C  0.54601924  0.56641426  0.95321974     1.09900
O2228       O  0.80172488  0.78187959  0.80987356    -0.79700
O2229       O  0.68057806  0.71939817  0.76697049    -0.79700
O2230       O  0.72106871  0.80306903  0.79334782    -0.79700
O2231       O  0.78957898  0.67993665  0.76539258    -0.79700
O2232       O  0.67781815  0.78304849  0.76677291    -0.79800
O2233       O  0.80431902  0.71519449  0.80516646    -0.79700
O2234       O  0.72599930  0.69548239  0.78862738    -0.79700
O2235       O  0.78349370  0.82040889  0.77487842    -0.79700
C2236       C  0.79811011  0.81176850  0.80336422     1.10000
C2237       C  0.69358016  0.70045878  0.78944200     1.09900
C2238       C  0.68878625  0.80020386  0.79118484     1.10000
C2239       C  0.80423323  0.68632100  0.79431972     1.09900
O2240       O  0.82631795  0.71963001  0.73136023    -0.79700
O2241       O  0.71176232  0.78883513  0.69931814    -0.79800
O2242       O  0.77809891  0.78951925  0.70545240    -0.79700
O2243       O  0.73316179  0.67168509  0.72168910    -0.79700
O2244       O  0.71244644  0.71620393  0.69639438    -0.79800
O2245       O  0.82458109  0.78519532  0.73717323    -0.79700
O2246       O  0.77836083  0.71772761  0.70160689    -0.79700
O2247       O  0.72800913  0.83209347  0.72909185    -0.79800
Co2248     Co  0.81011158  0.75043638  0.77052941     1.51500
Co2249     Co  0.70377084  0.75161363  0.73539817     1.51700
Co2250     Co  0.74806968  0.79459014  0.74914758     1.51600
Co2251     Co  0.75072178  0.70785739  0.74497262     1.51500
O2252       O  0.75605192  0.75071569  0.76263939    -1.41600
C2253       C  0.81073659  0.71198026  0.70336617     1.09900
C2254       C  0.71232422  0.82015137  0.70309704     1.10000
C2255       C  0.81006414  0.79463187  0.70909506     1.09900
C2256       C  0.71618152  0.68494798  0.69688275     1.09900
C2257       C  0.67213957  0.65361775  0.61335527    -0.11500
C2258       C  0.66993295  0.62088581  0.62179030     0.11100
C2259       C  0.68664916  0.60867090  0.65209402    -0.03300
C2260       C  0.70238759  0.63045981  0.67493904    -0.06000
C2261       C  0.70218453  0.66398235  0.66842922    -0.16800
C2262       C  0.68760989  0.67570858  0.63631142     0.02100
C2263       C  0.64608429  0.60098733  0.60097442     0.12100
C2264       C  0.68749418  0.57280363  0.66035965     0.62700
H2265       H  0.71406189  0.62125723  0.69888243     0.12100
C2266       C  0.68690721  0.71118874  0.62636950     0.54800
H2267       H  0.65948201  0.66201620  0.58957018     0.07900
C2268       C  0.60976273  0.60149071  0.60881674    -0.05900
C2269       C  0.58827872  0.58201150  0.58873552    -0.06600
C2270       C  0.60137936  0.56287394  0.56015569    -0.16200
C2271       C  0.63798320  0.56311190  0.55181307    -0.01800
C2272       C  0.65972389  0.58198584  0.57287747    -0.09300
C2273       C  0.59358425  0.62304887  0.63795709     0.64900
H2274       H  0.56046818  0.58255455  0.59481327     0.10400
C2275       C  0.65438058  0.54402853  0.52098235     0.63300
H2276       H  0.68762278  0.58257950  0.56726857     0.07700
F2277       F  0.67460552  0.71615138  0.59251431    -0.19700
F2278       F  0.72036253  0.72295136  0.62737005    -0.15900
F2279       F  0.66495971  0.72848833  0.64960751    -0.19400
F2280       F  0.70539234  0.55613844  0.63347577    -0.22800
F2281       F  0.65382165  0.56166721  0.66317252    -0.24300
F2282       F  0.70417818  0.56608652  0.69182561    -0.18300
F2283       F  0.69053443  0.54584280  0.51986514    -0.20800
F2284       F  0.63989383  0.56214720  0.99122146    -0.21900
F2285       F  0.64924151  0.51637559  0.02252049    -0.19100
F2286       F  0.55784653  0.61915661  0.64184010    -0.19200
F2287       F  0.59879465  0.65506185  0.62998731    -0.23000
F2288       F  0.60879026  0.61590245  0.67000206    -0.24600
C2289       C  0.58022859  0.60863180  0.87043705    -0.11500
C2290       C  0.60664112  0.62693723  0.88489720     0.11100
C2291       C  0.61042373  0.62821027  0.92208076    -0.03300
C2292       C  0.58830066  0.60968143  0.94355960    -0.06000
C2293       C  0.56362688  0.58922969  0.92895301    -0.16800
C2294       C  0.55905751  0.58906977  0.89167509     0.02100
C2295       C  0.62936924  0.64514908  0.86028381     0.12100
C2296       C  0.63855148  0.64808741  0.93882839     0.62700
H2297       H  0.59148315  0.60970523  0.97201791     0.12100
C2298       C  0.53252745  0.56813117  0.87397239     0.54800
H2299       H  0.57730800  0.60884252  0.84194707     0.07900
C2300       C  0.65800691  0.63028479  0.84138495    -0.05900
C2301       C  0.67857460  0.64940725  0.81896262    -0.06600
C2302       C  0.67090835  0.68247476  0.81437910    -0.16200
C2303       C  0.64186102  0.69708223  0.83303521    -0.01800
C2304       C  0.62130897  0.67795465  0.85533325    -0.09300
C2305       C  0.66660388  0.59439917  0.84467248     0.64900
H2306       H  0.70058386  0.63850892  0.80425909     0.10400
C2307       C  0.63392747  0.73301461  0.83133196     0.63300
H2308       H  0.59884192  0.68855499  0.86957192     0.07700
F2309       F  0.54411855  0.53620598  0.87440987    -0.18500
F2310       F  0.52754136  0.57681748  0.83903337    -0.15900
F2311       F  0.50052601  0.57126219  0.89147783    -0.19400
F2312       F  0.63399600  0.68020060  0.92987113    -0.22800
F2313       F  0.67128981  0.63707605  0.92698657    -0.24300
F2314       F  0.63755425  0.64611407  0.97541138    -0.18300
F2315       F  0.60809792  0.74295960  0.85559990    -0.20800
F2316       F  0.62271935  0.74137045  0.79794446    -0.21900
F2317       F  0.66398015  0.74900239  0.83904023    -0.19100
F2318       F  0.69571171  0.58499873  0.82426439    -0.19200
F2319       F  0.63868899  0.57684302  0.83347989    -0.23000
F2320       F  0.67335333  0.58684759  0.87952304    -0.24600
C2321       C  0.64026899  0.90432150  0.57296760    -0.11500
C2322       C  0.63257591  0.90315844  0.60917659     0.11100
C2323       C  0.60461604  0.92249905  0.62364749    -0.03300
C2324       C  0.58375757  0.94119285  0.60058472    -0.06000
C2325       C  0.59036750  0.94150808  0.56375775    -0.16800
C2326       C  0.61961694  0.92278830  0.54967239     0.02100
C2327       C  0.65436193  0.88113350  0.63121167     0.12100
C2328       C  0.59698040  0.92321818  0.66328343     0.62700
H2329       H  0.56188967  0.95569339  0.61125960     0.12100
C2330       C  0.62854940  0.92047020  0.51028443     0.54800
H2331       H  0.66245651  0.88977322  0.56302301     0.07900
C2332       C  0.64816775  0.84775391  0.63343539    -0.05900
C2333       C  0.66870364  0.82868918  0.65622969    -0.06600
C2334       C  0.69509772  0.84184469  0.67677823    -0.16200
C2335       C  0.70242050  0.87524114  0.67298437    -0.01800
C2336       C  0.68196594  0.89407961  0.64980430    -0.09300
C2337       C  0.61985820  0.83239045  0.61193013     0.64900
H2338       H  0.66348008  0.80328066  0.65886195     0.10400
C2339       C  0.73108554  0.89155067  0.69324279     0.63300
H2340       H  0.68662151  0.91956617  0.64668915     0.07700
F2341       F  0.60003639  0.90970792  0.49234049    -0.19700
F2342       F  0.65631095  0.89896675  0.50308863    -0.15900
F2343       F  0.63792576  0.95020453  0.49750183    -0.19400
F2344       F  0.62551244  0.93469286  0.68082296    -0.22800
F2345       F  0.59035664  0.89248309  0.67519055    -0.24300
F2346       F  0.56820397  0.94304858  0.67193131    -0.18300
F2347       F  0.76251193  0.87429647  0.68895886    -0.20800
F2348       F  0.72184498  0.89358658  0.72879340    -0.21900
F2349       F  0.73633040  0.92263262  0.68144016    -0.19100
F2350       F  0.61681171  0.79997040  0.61962969    -0.19200
F2351       F  0.62785794  0.83497464  0.57623007    -0.23000
F2352       F  0.58779750  0.84773295  0.61902665    -0.24600
C2353       C  0.90556171  0.59702167  0.63163692    -0.11500
C2354       C  0.87895713  0.61441454  0.61446082     0.11100
C2355       C  0.87328757  0.60902868  0.57810242    -0.03300
C2356       C  0.89245915  0.58383880  0.56088716    -0.06000
C2357       C  0.91985231  0.56669132  0.57767556    -0.16800
C2358       C  0.92757095  0.57443219  0.61343898     0.02100
C2359       C  0.85971706  0.64009710  0.63486395     0.12100
C2360       C  0.84938271  0.63147214  0.55703542     0.62700
H2361       H  0.88792644  0.57906411  0.53312915     0.12100
C2362       C  0.96002198  0.56123573  0.63192786     0.54800
H2363       H  0.91022138  0.60287345  0.65911711     0.07900
C2364       C  0.82777658  0.63435613  0.65281511    -0.05900
C2365       C  0.81170974  0.65968096  0.67256834    -0.06600
C2366       C  0.82777023  0.68943117  0.67722426    -0.16200
C2367       C  0.86038934  0.69474103  0.66004160    -0.01800
C2368       C  0.87548498  0.66998491  0.63850155    -0.09300
C2369       C  0.81232897  0.60096772  0.65358423     0.64900
H2370       H  0.78747762  0.65546055  0.68685485     0.10400
C2371       C  0.87886876  0.72636109  0.66367146     0.63300
H2372       H  0.90034988  0.67338668  0.62486426     0.07700
F2373       F  0.95975818  0.56943842  0.66751589    -0.19700
F2374       F  0.98956144  0.57400046  0.61638488    -0.15900
F2375       F  0.96232750  0.52802913  0.62960629    -0.19400
F2376       F  0.86205353  0.66232512  0.55803231    -0.22800
F2377       F  0.81572598  0.63220490  0.57111547    -0.24300
F2378       F  0.84782364  0.62204539  0.52189446    -0.18300
F2379       F  0.88691338  0.73187710  0.69862753    -0.20800
F2380       F  0.85742035  0.75120819  0.65187436    -0.21900
F2381       F  0.90975256  0.72649496  0.64384225    -0.19100
F2382       F  0.78022941  0.60109007  0.67125552    -0.19200
F2383       F  0.83492610  0.57988815  0.67081837    -0.23000
F2384       F  0.80750263  0.58954823  0.61969087    -0.24600
C2385       C  0.85516782  0.91043943  0.92714568    -0.11500
C2386       C  0.86934846  0.90178311  0.89392211     0.11100
C2387       C  0.90195314  0.91405117  0.88284061    -0.03300
C2388       C  0.92029866  0.93348797  0.90654975    -0.06000
C2389       C  0.90660836  0.94142943  0.94043221    -0.16800
C2390       C  0.87325876  0.92984244  0.95083470     0.02100
C2391       C  0.84994094  0.87859233  0.87206752     0.12100
C2392       C  0.91689174  0.90685580  0.84597483     0.62700
H2393       H  0.94547268  0.94277401  0.89873199     0.12100
C2394       C  0.85746909  0.93621357  0.98749708     0.54800
H2395       H  0.82999398  0.90104139  0.93469121     0.07900
C2396       C  0.85491518  0.84488911  0.87598518    -0.05900
C2397       C  0.83723533  0.82420521  0.85327013    -0.06600
C2398       C  0.81347731  0.83594322  0.82787343    -0.16200
C2399       C  0.80602360  0.86988193  0.82655102    -0.01800
C2400       C  0.82501466  0.89057657  0.84834344    -0.09300
C2401       C  0.87824781  0.83086998  0.90465098     0.64900
H2402       H  0.84214550  0.79844251  0.85524885     0.10400
C2403       C  0.77790046  0.88457247  0.80307183     0.63300
H2404       H  0.82069411  0.91646601  0.84699776     0.07700
F2405       F  0.88141827  0.92699821  0.01266784    -0.19700
F2406       F  0.82752478  0.91895688  0.99358436    -0.15900
F2407       F  0.84855979  0.96862423  0.99149775    -0.19400
F2408       F  0.89408661  0.91897866  0.82097136    -0.22800
F2409       F  0.92138296  0.87394442  0.84087606    -0.24300
F2410       F  0.94903298  0.92071407  0.84051726    -0.18300
F2411       F  0.74667583  0.86916364  0.80867353    -0.20800
F2412       F  0.78825420  0.88166664  0.76789371    -0.21900
F2413       F  0.77169147  0.91706037  0.81027333    -0.19100
F2414       F  0.88004943  0.79748499  0.90353716    -0.19200
F2415       F  0.86498300  0.84020169  0.93758571    -0.23000
F2416       F  0.91190936  0.84177028  0.90076759    -0.24600
C2417       C  0.91021918  0.62349290  0.90582597    -0.11500
C2418       C  0.88835819  0.60510832  0.88483539     0.11100
C2419       C  0.89050729  0.57107542  0.88669235    -0.03300
C2420       C  0.91340490  0.55670897  0.91102538    -0.06000
C2421       C  0.93409632  0.57498426  0.93374475    -0.16800
C2422       C  0.93277778  0.60920357  0.93078637     0.02100
C2423       C  0.86356800  0.62257408  0.86125442     0.12100
C2424       C  0.86822729  0.54986967  0.86379256     0.62700
H2425       H  0.91454984  0.53069781  0.91291169     0.12100
C2426       C  0.95473184  0.63086008  0.95339920     0.54800
H2427       H  0.90875333  0.64946019  0.90294435     0.07900
C2428       C  0.83361000  0.63990520  0.87479344    -0.05900
C2429       C  0.81383454  0.65928523  0.85155078    -0.06600
C2430       C  0.82237081  0.66091555  0.81529978    -0.16200
C2431       C  0.85073733  0.64147952  0.80135115    -0.01800
C2432       C  0.87149882  0.62338610  0.82491768    -0.09300
C2433       C  0.82302289  0.63853257  0.91373378     0.64900
H2434       H  0.79199100  0.67412354  0.86173533     0.10400
C2435       C  0.86000777  0.64059306  0.76212595     0.63300
H2436       H  0.89480853  0.61031147  0.81528014     0.07700
F2437       F  0.94216221  0.62716743  0.48988380    -0.19700
F2438       F  0.95144804  0.66096161  0.44506877    -0.15900
F2439       F  0.98821035  0.61876219  0.45198779    -0.19400
F2440       F  0.87676146  0.55405104  0.82844252    -0.22800
F2441       F  0.83314988  0.55788479  0.86945397    -0.24300
F2442       F  0.87329155  0.51740346  0.87134597    -0.18300
F2443       F  0.88838502  0.61990765  0.75451445    -0.20800
F2444       F  0.86850771  0.67100956  0.75086890    -0.21900
F2445       F  0.83182453  0.62993749  0.74343761    -0.19100
F2446       F  0.79040482  0.65316988  0.92015244    -0.19200
F2447       F  0.84710494  0.65418948  0.93390602    -0.23000
F2448       F  0.82152865  0.60676530  0.92451015    -0.24600
C2449       C  0.56980239  0.86510511  0.90363082    -0.11500
C2450       C  0.60038037  0.87547089  0.88675946     0.11100
C2451       C  0.60921904  0.90829500  0.88830637    -0.03300
C2452       C  0.58725273  0.92977708  0.90779405    -0.06000
C2453       C  0.55720627  0.91940455  0.92583833    -0.16800
C2454       C  0.54796356  0.88654107  0.92361988     0.02100
C2455       C  0.62080247  0.85238596  0.86419801     0.12100
C2456       C  0.64176693  0.92058141  0.86951128     0.62700
H2457       H  0.59412629  0.95481170  0.91008289     0.12100
C2458       C  0.51520674  0.87407196  0.94171852     0.54800
H2459       H  0.56335835  0.83995095  0.90111337     0.07900
C2460       C  0.64970296  0.83404363  0.87676094    -0.05900
C2461       C  0.67187650  0.81787549  0.85190756    -0.06600
C2462       C  0.66394198  0.81731672  0.81575481    -0.16200
C2463       C  0.63264088  0.83304152  0.80393016    -0.01800
C2464       C  0.61186137  0.85071208  0.82859870    -0.09300
C2465       C  0.65615176  0.83075923  0.91611937     0.64900
H2466       H  0.69517555  0.80484189  0.86061344     0.10400
C2467       C  0.62176837  0.83279930  0.76540075     0.63300
H2468       H  0.58883470  0.86434462  0.82020248     0.07700
F2469       F  0.50820266  0.84307384  0.93073092    -0.19700
F2470       F  0.48656244  0.89376408  0.93379671    -0.15900
F2471       F  0.51939953  0.87342501  0.97797751    -0.19400
F2472       F  0.64008521  0.91480255  0.83353238    -0.22800
F2473       F  0.67142143  0.90510524  0.88237557    -0.24300
F2474       F  0.64517844  0.95343199  0.87443743    -0.18300
F2475       F  0.59201343  0.85197454  0.75994225    -0.20800
F2476       F  0.61442602  0.80178426  0.75495363    -0.21900
F2477       F  0.64837360  0.84445727  0.74428362    -0.19100
F2478       F  0.68487584  0.81059163  0.92265864    -0.19200
F2479       F  0.62713370  0.81780721  0.93248430    -0.23000
F2480       F  0.66194249  0.86053103  0.93104040    -0.24600
C2481       C  0.84378020  0.83853737  0.62632334    -0.11500
C2482       C  0.87105716  0.85582344  0.64093837     0.11100
C2483       C  0.87748729  0.85353749  0.67755278    -0.03300
C2484       C  0.85731391  0.83271621  0.69817408    -0.06000
C2485       C  0.82995491  0.81508821  0.68382333    -0.16800
C2486       C  0.82259402  0.81841168  0.64719183     0.02100
C2487       C  0.89250193  0.87644356  0.61742288     0.12100
C2488       C  0.90514778  0.87350083  0.69499978     0.62700
H2489       H  0.86220779  0.83085667  0.72606406     0.12100
C2490       C  0.79245701  0.80160678  0.62994632     0.54800
H2491       H  0.83891199  0.84143121  0.59835446     0.07900
C2492       C  0.92146233  0.86367696  0.59758086    -0.05900
C2493       C  0.94176377  0.88487193  0.57742466    -0.06600
C2494       C  0.93394353  0.91841233  0.57587574    -0.16200
C2495       C  0.90455268  0.93098880  0.59604514    -0.01800
C2496       C  0.88427737  0.90956402  0.61615653    -0.09300
C2497       C  0.93035737  0.82764537  0.59716896     0.64900
H2498       H  0.96379667  0.87490804  0.56201287     0.10400
C2499       C  0.89452543  0.96666252  0.59724591     0.63300
H2500       H  0.86175423  0.91850506  0.63153225     0.07700
F2501       F  0.79313603  0.76910133  0.63792750    -0.19700
F2502       F  0.79375574  0.80437172  0.59343336    -0.15900
F2503       F  0.76114763  0.81555287  0.64189072    -0.19400
F2504       F  0.89637199  0.90594428  0.69183311    -0.22800
F2505       F  0.93752914  0.86731434  0.67896579    -0.24300
F2506       F  0.90799583  0.86673759  0.73071325    -0.18300
F2507       F  0.88501376  0.97719105  0.56403755    -0.20800
F2508       F  0.92259991  0.98363131  0.60877015    -0.21900
F2509       F  0.86661458  0.97342959  0.62034844    -0.19100
F2510       F  0.96088334  0.82036340  0.57799379    -0.19200
F2511       F  0.90343187  0.81135539  0.58188187    -0.23000
F2512       F  0.93482264  0.81653665  0.63129122    -0.24600
loop_ 
_geom_bond_atom_site_label_1 
_geom_bond_atom_site_label_2 
_geom_bond_distance 
_geom_bond_site_symmetry_2 
_ccdc_geom_bond_type 
O1            C9   1.299       .  A
O1          Co21   2.117   1_554  S
O2           C10   1.278       .  A
O2         Co336   2.052   1_554  S
O3           C11   1.275       .  A
O3        Co1279   1.984   1_455  S
O4           C12   1.250       .  A
O4         Co338   1.968       .  S
O5           C11   1.274       .  A
O5         Co964   2.014   1_554  S
O6           C12   1.264       .  A
O6         Co649   2.021   1_544  S
O7           C10   1.260       .  A
O7        Co1594   1.953       .  S
O8            C9   1.263       .  A
O8          Co23   1.881       .  S
C9          C296   1.503       .  S
C10          C72   1.507       .  S
C11         C127   1.489       .  S
C12         C159   1.497       .  S
O13          C26   1.268       .  A
O13        Co963   1.969   1_545  S
O14          C27   1.258       .  A
O14        Co650   1.972       .  S
O15          C28   1.297       .  A
O15        Co337   2.115       .  S
O16          C29   1.273       .  A
O16       Co1280   2.030       .  S
O17          C29   1.260       .  A
O17         Co22   1.971       .  S
O18          C28   1.262       .  A
O18        Co335   1.893       .  S
O19          C26   1.280       .  A
O19         Co24   2.040       .  S
O20          C27   1.258       .  A
O20       Co1593   1.987   1_455  S
Co21        O634   2.021   1_556  S
Co21        O955   1.954       .  S
Co21        O332   1.894       .  S
Co21         O25   2.014   1_556  S
Co22        O316   2.033       .  S
Co22        O947   2.024   1_545  S
Co22        O642   1.972   1_545  S
Co22       O2223   2.030       .  S
Co23       O1259   1.984       .  S
Co23        O329   2.126   1_554  S
Co23       O1590   1.979   1_554  S
Co23         O25   2.002       .  S
Co24        O318   1.966       .  S
Co24       O1577   1.958       .  S
Co24       O1272   2.030       .  S
Co24        O967   2.022       .  S
O25       Co2220   2.033   1_554  S
O25        Co966   2.029       .  S
C26         C223   1.502       .  S
C27         C255   1.475       .  S
C28         C191   1.487       .  S
C29          C95   1.507       .  S
O30          C38   1.265       .  A
O30         Co50   1.976       .  S
O31          C39   1.255       .  A
O31         Co51   2.007       .  S
O32          C40   1.249       .  A
O32         Co52   1.978       .  S
O33          C41   1.270       .  A
O33         Co53   2.022       .  S
O34          C40   1.249       .  A
O34         Co51   1.980       .  S
O35          C41   1.263       .  A
O35         Co50   1.980       .  S
O36          C39   1.252       .  A
O36         Co53   1.980       .  S
O37          C38   1.269       .  A
O37         Co52   2.012       .  S
C38         C200   1.500       .  S
C39         C104   1.507       .  S
C40         C264   1.479       .  S
C41         C232   1.486       .  S
O42          C55   1.265       .  A
O42         Co50   2.016       .  S
O43          C56   1.306       .  A
O43         Co51   2.085       .  S
O44          C57   1.257       .  A
O44         Co52   2.000       .  S
O45          C58   1.271       .  A
O45         Co53   1.891       .  S
O46          C58   1.300       .  A
O46         Co51   2.086       .  S
O47          C57   1.265       .  A
O47         Co50   2.007       .  S
O48          C55   1.257       .  A
O48         Co53   1.993       .  S
O49          C56   1.269       .  A
O49         Co52   1.888       .  S
Co50         O54   2.089       .  S
Co51         O54   2.264       .  S
Co52         O54   1.915       .  S
Co53         O54   1.912       .  S
C55         C168   1.485       .  S
C56         C136   1.492       .  S
C57         C287   1.496       .  S
C58          C63   1.502       .  S
C59          C60   1.403       .  A
C59          C64   1.413       .  A
C59          H69   1.083       .  S
C60          C65   1.490       .  S
C60          C61   1.411       .  A
C61          C62   1.405       .  A
C61          C66   1.520       .  S
C62          C63   1.412       .  A
C62          H67   1.081       .  S
C63          C64   1.428       .  A
C64          C68   1.521       .  S
C65          C70   1.412       .  A
C65          C74   1.403       .  A
C66          F82   1.382       .  S
C66          F83   1.382       .  S
C66          F84   1.385       .  S
C68          F79   1.385       .  S
C68          F80   1.383       .  S
C68          F81   1.384       .  S
C70          C71   1.404       .  A
C70          C75   1.524       .  S
C71          C72   1.414       .  A
C71          H76   1.080       .  S
C72          C73   1.426       .  A
C73          C74   1.416       .  A
C73          C77   1.517       .  S
C74          H78   1.083       .  S
C75          F88   1.385       .  S
C75          F89   1.382       .  S
C75          F90   1.382       .  S
C77          F85   1.385       .  S
C77         F400   1.382   1_554  S
C77         F401   1.384       .  S
F86         C391   1.383       .  S
F87         C391   1.382       .  S
C91          C92   1.401       .  A
C91          C96   1.411       .  A
C91         H101   1.084       .  S
C92          C97   1.495       .  S
C92          C93   1.414       .  A
C93          C94   1.412       .  A
C93          C98   1.519       .  S
C94          C95   1.413       .  A
C94          H99   1.083       .  S
C95          C96   1.427       .  A
C96         C100   1.520       .  S
C97         C102   1.416       .  A
C97         C106   1.399       .  A
C98         F114   1.383       .  S
C98         F115   1.382       .  S
C98         F116   1.385       .  S
C100        F111   1.383       .  S
C100        F112   1.385       .  S
C100        F113   1.384       .  S
C102        C103   1.411       .  A
C102        C107   1.519       .  S
C103        C104   1.409       .  A
C103        H108   1.082       .  S
C104        C105   1.432       .  A
C105        C106   1.413       .  A
C105        C109   1.521       .  S
C106        H110   1.083       .  S
C107        F120   1.385       .  S
C107        F121   1.382       .  S
C107        F122   1.382       .  S
C109        F117   1.385       .  S
C109        F118   1.383       .  S
C109        F119   1.381       .  S
C123        C124   1.397       .  A
C123        C128   1.407       .  A
C123        H133   1.084       .  S
C124        C129   1.485       .  S
C124        C125   1.415       .  A
C125        C126   1.408       .  A
C125        C130   1.518       .  S
C126        C127   1.404       .  A
C126        H131   1.083       .  S
C127        C128   1.429       .  A
C128        C132   1.522       .  S
C129        C134   1.414       .  A
C129        C138   1.400       .  A
C130        F146   1.382       .  S
C130        F147   1.382       .  S
C130        F148   1.384       .  S
C132        F143   1.379   1_554  S
C132        F144   1.385       .  S
C132        F145   1.382   1_554  S
C134        C135   1.405       .  A
C134        C139   1.520       .  S
C135        C136   1.406       .  A
C135        H140   1.083       .  S
C136        C137   1.427       .  A
C137        C138   1.409       .  A
C137        C141   1.521       .  S
C138        H142   1.083       .  S
C139        F152   1.385       .  S
C139        F153   1.382       .  S
C139        F154   1.383       .  S
C141        F149   1.383       .  S
C141        F150   1.383       .  S
C141        F151   1.385       .  S
C155        C156   1.399       .  A
C155        C160   1.409       .  A
C155        H165   1.084       .  S
C156        C161   1.486       .  S
C156        C157   1.414       .  A
C157        C158   1.409       .  A
C157        C162   1.521       .  S
C158        C159   1.410       .  A
C158        H163   1.084       .  S
C159        C160   1.429       .  A
C160        C164   1.523       .  S
C161        C166   1.413       .  A
C161        C170   1.404       .  A
C162        F178   1.383       .  S
C162        F179   1.381       .  S
C162        F180   1.384       .  S
C164        F175   1.385       .  S
C164        F176   1.382       .  S
C164        F177   1.380       .  S
C166        C167   1.405       .  A
C166        C171   1.521       .  S
C167        C168   1.405       .  A
C167        H172   1.085       .  S
C168        C169   1.419       .  A
C169        C170   1.411       .  A
C169        C173   1.517       .  S
C170        H174   1.085       .  S
C171        F184   1.384       .  S
C171        F185   1.383       .  S
C171        F186   1.380       .  S
C173        F181   1.381       .  S
C173        F182   1.377       .  S
C173        F183   1.385       .  S
C187        C188   1.399       .  A
C187        C192   1.406       .  A
C187        H197   1.082       .  S
C188        C193   1.483       .  S
C188        C189   1.414       .  A
C189        C190   1.407       .  A
C189        C194   1.520       .  S
C190        C191   1.407       .  A
C190        H195   1.083       .  S
C191        C192   1.424       .  A
C192        C196   1.521       .  S
C193        C198   1.412       .  A
C193        C202   1.400       .  A
C194        F210   1.382       .  S
C194        F211   1.381       .  S
C194        F212   1.385       .  S
C196        F207   1.383       .  S
C196        F208   1.385       .  S
C196        F209   1.382       .  S
C198        C199   1.405       .  A
C198        C203   1.523       .  S
C199        C200   1.412       .  A
C199        H204   1.081       .  S
C200        C201   1.428       .  A
C201        C202   1.411       .  A
C201        C205   1.521       .  S
C202        H206   1.082       .  S
C203        F216   1.384       .  S
C203        F217   1.382       .  S
C203        F218   1.381       .  S
C205        F213   1.383       .  S
C205        F214   1.383       .  S
C205        F215   1.385       .  S
C219        C220   1.400       .  A
C219        C224   1.409       .  A
C219        H229   1.083       .  S
C220        C225   1.489       .  S
C220        C221   1.413       .  A
C221        C222   1.410       .  A
C221        C226   1.521       .  S
C222        C223   1.414       .  A
C222        H227   1.082       .  S
C223        C224   1.426       .  A
C224        C228   1.519       .  S
C225        C230   1.417       .  A
C225        C234   1.401       .  A
C226        F242   1.382       .  S
C226        F243   1.383       .  S
C226        F244   1.384       .  S
C228        F553   1.383       .  S
C228        F554   1.384       .  S
C228        F555   1.379       .  S
C230        C231   1.409       .  A
C230        C235   1.520       .  S
C231        C232   1.404       .  A
C231        H236   1.084       .  S
C232        C233   1.420       .  A
C233        C234   1.408       .  A
C233        C237   1.515       .  S
C234        H238   1.084       .  S
C235        F248   1.384       .  S
C235        F249   1.382       .  S
C235        F250   1.383       .  S
C237        F245   1.385       .  S
C237        F246   1.380       .  S
C237        F247   1.380       .  S
F239        C542   1.383       .  S
F240        C542   1.385       .  S
F241        C542   1.381       .  S
C251        C252   1.400       .  A
C251        C256   1.405       .  A
C251        H261   1.083       .  S
C252        C257   1.472       .  S
C252        C253   1.413       .  A
C253        C254   1.398       .  A
C253        C258   1.522       .  S
C254        C255   1.405       .  A
C254        H259   1.082       .  S
C255        C256   1.420       .  A
C256        C260   1.519       .  S
C257        C262   1.414       .  A
C257        C266   1.392       .  A
C258        F274   1.382       .  S
C258        F275   1.382       .  S
C258        F276   1.385       .  S
C260        F271   1.385       .  S
C260        F272   1.382   1_455  S
C260        F273   1.383       .  S
C262        C263   1.409       .  A
C262        C267   1.519       .  S
C263        C264   1.406       .  A
C263        H268   1.083       .  S
C264        C265   1.425       .  A
C265        C266   1.398       .  A
C265        C269   1.520       .  S
C266        H270   1.083       .  S
C267        F280   1.384       .  S
C267        F281   1.383       .  S
C267        F282   1.382       .  S
C269        F277   1.385       .  S
C269        F278   1.382       .  S
C269        F279   1.378       .  S
C283        C284   1.403       .  A
C283        C288   1.412       .  A
C283        H293   1.082       .  S
C284        C289   1.487       .  S
C284        C285   1.411       .  A
C285        C286   1.406       .  A
C285        C290   1.522       .  S
C286        C287   1.412       .  A
C286        H291   1.075       .  S
C287        C288   1.425       .  A
C288        C292   1.520       .  S
C289        C294   1.411       .  A
C289        C298   1.401       .  A
C290        F306   1.382       .  S
C290        F307   1.382       .  S
C290        F308   1.384       .  S
C292        F303   1.382       .  S
C292        F304   1.385       .  S
C292        F305   1.377       .  S
C294        C295   1.405       .  A
C294        C299   1.522       .  S
C295        C296   1.414       .  A
C295        H300   1.083       .  S
C296        C297   1.426       .  A
C297        C298   1.412       .  A
C297        C301   1.518       .  S
C298        H302   1.083       .  S
C299        F312   1.385       .  S
C299        F313   1.382       .  S
C299        F314   1.382       .  S
C301        F309   1.382       .  S
C301        F310   1.378       .  S
C301        F311   1.384       .  S
O315        C323   1.300       .  A
O315       Co335   2.122       .  S
O316        C324   1.273       .  A
O317        C325   1.273       .  A
O317      Co1593   1.981   1_455  S
O318        C326   1.251       .  A
O319        C325   1.276       .  A
O319       Co650   2.024       .  S
O320        C326   1.262       .  A
O320       Co963   2.006   1_545  S
O321        C324   1.263       .  A
O321      Co1280   1.958       .  S
O322        C323   1.264       .  A
O322       Co337   1.887       .  S
C323        C610   1.507       .  S
C324        C386   1.499       .  S
C325        C441   1.498       .  S
C326        C473   1.486       .  S
O327        C340   1.265       .  A
O327       Co649   1.954   1_545  S
O328        C341   1.259       .  A
O328       Co964   1.979       .  S
O329        C342   1.298       .  A
O330        C343   1.273       .  A
O330      Co1594   2.030   1_556  S
O331        C343   1.256       .  A
O331       Co336   1.961       .  S
O332        C342   1.261       .  A
O333        C340   1.278       .  A
O333       Co338   2.039   1_556  S
O334        C341   1.256       .  A
O334      Co1279   1.979   1_456  S
Co335       O948   2.006       .  S
Co335       O641   1.969       .  S
Co335       O339   2.023       .  S
Co336       O633   2.014   1_546  S
Co336       O956   1.979   1_545  S
Co336      O1909   2.033   1_556  S
Co337      O1573   1.981       .  S
Co337      O1276   1.987       .  S
Co337       O339   2.005       .  S
Co338      O1263   1.953       .  S
Co338      O1586   2.030   1_554  S
Co338       O653   2.029       .  S
O339      Co1906   2.030       .  S
O339       Co652   2.022       .  S
C340        C537   1.495       .  S
C341        C569   1.475       .  S
C342        C505   1.492       .  S
C343        C409   1.487       .  S
O344        C352   1.268       .  A
O344       Co364   1.986       .  S
O345        C353   1.258       .  A
O345       Co365   2.010       .  S
O346        C354   1.247       .  A
O346       Co366   1.969       .  S
O347        C355   1.268       .  A
O347       Co367   2.020       .  S
O348        C354   1.249       .  A
O348       Co365   1.985       .  S
O349        C355   1.264       .  A
O349       Co364   1.981       .  S
O350        C353   1.248       .  A
O350       Co367   1.962       .  S
O351        C352   1.270       .  A
O351       Co366   2.014       .  S
C352        C514   1.502       .  S
C353        C418   1.486       .  S
C354        C578   1.477       .  S
C355        C546   1.483       .  S
O356        C369   1.267       .  A
O356       Co364   2.024       .  S
O357        C370   1.306       .  A
O357       Co365   2.090       .  S
O358        C371   1.256       .  A
O358       Co366   1.997       .  S
O359        C372   1.268       .  A
O359       Co367   1.884       .  S
O360        C372   1.299       .  A
O360       Co365   2.089       .  S
O361        C371   1.264       .  A
O361       Co364   2.003       .  S
O362        C369   1.255       .  A
O362       Co367   1.983       .  S
O363        C370   1.267       .  A
O363       Co366   1.881       .  S
Co364       O368   2.091       .  S
Co365       O368   2.263       .  S
Co366       O368   1.908       .  S
Co367       O368   1.914       .  S
C369        C482   1.483       .  S
C370        C450   1.492       .  S
C371        C601   1.493       .  S
C372        C377   1.497       .  S
C373        C374   1.400       .  A
C373        C378   1.410       .  A
C373        H383   1.082       .  S
C374        C379   1.483       .  S
C374        C375   1.410       .  A
C375        C376   1.404       .  A
C375        C380   1.520       .  S
C376        C377   1.412       .  A
C376        H381   1.082       .  S
C377        C378   1.426       .  A
C378        C382   1.520       .  S
C379        C384   1.412       .  A
C379        C388   1.401       .  A
C380        F396   1.382       .  S
C380        F397   1.383       .  S
C380        F398   1.385       .  S
C382        F393   1.385       .  S
C382        F394   1.383       .  S
C382        F395   1.383       .  S
C384        C385   1.401       .  A
C384        C389   1.523       .  S
C385        C386   1.411       .  A
C385        H390   1.082       .  S
C386        C387   1.427       .  A
C387        C388   1.413       .  A
C387        C391   1.518       .  S
C388        H392   1.083       .  S
C389        F402   1.384       .  S
C389        F403   1.382       .  S
C389        F404   1.382       .  S
C391        F399   1.385       .  S
C405        C406   1.400       .  A
C405        C410   1.406       .  A
C405        H415   1.084       .  S
C406        C411   1.485       .  S
C406        C407   1.416       .  A
C407        C408   1.408       .  A
C407        C412   1.521       .  S
C408        C409   1.407       .  A
C408        H413   1.084       .  S
C409        C410   1.422       .  A
C410        C414   1.518       .  S
C411        C416   1.417       .  A
C411        C420   1.399       .  A
C412        F428   1.382       .  S
C412        F429   1.382       .  S
C412        F430   1.384       .  S
C414        F425   1.382       .  S
C414        F426   1.385       .  S
C414        F427   1.380       .  S
C416        C417   1.408       .  A
C416        C421   1.520       .  S
C417        C418   1.405       .  A
C417        H422   1.083       .  S
C418        C419   1.420       .  A
C419        C420   1.405       .  A
C419        C423   1.513       .  S
C420        H424   1.083       .  S
C421        F434   1.385       .  S
C421        F435   1.382       .  S
C421        F436   1.382       .  S
C423        F431   1.385       .  S
C423        F432   1.382       .  S
C423        F433   1.379       .  S
C437        C438   1.395       .  A
C437        C442   1.406       .  A
C437        H447   1.084       .  S
C438        C443   1.485       .  S
C438        C439   1.414       .  A
C439        C440   1.410       .  A
C439        C444   1.520       .  S
C440        C441   1.409       .  A
C440        H445   1.083       .  S
C441        C442   1.432       .  A
C442        C446   1.522       .  S
C443        C448   1.414       .  A
C443        C452   1.398       .  A
C444        F460   1.383       .  S
C444        F461   1.383       .  S
C444        F462   1.384       .  S
C446        F457   1.379       .  S
C446        F458   1.385       .  S
C446        F459   1.382       .  S
C448        C449   1.405       .  A
C448        C453   1.519       .  S
C449        C450   1.406       .  A
C449        H454   1.083       .  S
C450        C451   1.429       .  A
C451        C452   1.408       .  A
C451        C455   1.522       .  S
C452        H456   1.084       .  S
C453        F466   1.385       .  S
C453        F467   1.382       .  S
C453        F468   1.382       .  S
C455        F463   1.384       .  S
C455        F464   1.383       .  S
C455        F465   1.385       .  S
C469        C470   1.399       .  A
C469        C474   1.406       .  A
C469        H479   1.084       .  S
C470        C475   1.479       .  S
C470        C471   1.412       .  A
C471        C472   1.405       .  A
C471        C476   1.521       .  S
C472        C473   1.409       .  A
C472        H477   1.084       .  S
C473        C474   1.426       .  A
C474        C478   1.522       .  S
C475        C480   1.411       .  A
C475        C484   1.402       .  A
C476        F492   1.383       .  S
C476        F493   1.381       .  S
C476        F494   1.385       .  S
C478        F489   1.385       .  S
C478        F490   1.383       .  S
C478        F491   1.379       .  S
C480        C481   1.403       .  A
C480        C485   1.522       .  S
C481        C482   1.407       .  A
C481        H486   1.082       .  S
C482        C483   1.417       .  A
C483        C484   1.408       .  A
C483        C487   1.516       .  S
C484        H488   1.085       .  S
C485        F498   1.384       .  S
C485        F499   1.383       .  S
C485        F500   1.381       .  S
C487        F495   1.381       .  S
C487        F496   1.377       .  S
C487        F497   1.385       .  S
C501        C502   1.398       .  A
C501        C506   1.407       .  A
C501        H511   1.082       .  S
C502        C507   1.489       .  S
C502        C503   1.417       .  A
C503        C504   1.413       .  A
C503        C508   1.519       .  S
C504        C505   1.406       .  A
C504        H509   1.083       .  S
C505        C506   1.424       .  A
C506        C510   1.518       .  S
C507        C512   1.413       .  A
C507        C516   1.401       .  A
C508        F524   1.383       .  S
C508        F525   1.382       .  S
C508        F526   1.384       .  S
C510        F521   1.379   1_556  S
C510        F522   1.384       .  S
C510        F523   1.382       .  S
C512        C513   1.407       .  A
C512        C517   1.521       .  S
C513        C514   1.411       .  A
C513        H518   1.082       .  S
C514        C515   1.428       .  A
C515        C516   1.413       .  A
C515        C519   1.520       .  S
C516        H520   1.082       .  S
C517        F530   1.384       .  S
C517        F531   1.383       .  S
C517        F532   1.382       .  S
C519        F527   1.384       .  S
C519        F528   1.382       .  S
C519        F529   1.385       .  S
C533        C534   1.403       .  A
C533        C538   1.409       .  A
C533        H543   1.082       .  S
C534        C539   1.486       .  S
C534        C535   1.413       .  A
C535        C536   1.403       .  A
C535        C540   1.522       .  S
C536        C537   1.412       .  A
C536        H541   1.081       .  S
C537        C538   1.423       .  A
C538        C542   1.519       .  S
C539        C544   1.417       .  A
C539        C548   1.400       .  A
C540        F556   1.381       .  S
C540        F557   1.382       .  S
C540        F558   1.386       .  S
C544        C545   1.407       .  A
C544        C549   1.519       .  S
C545        C546   1.404       .  A
C545        H550   1.084       .  S
C546        C547   1.420       .  A
C547        C548   1.407       .  A
C547        C551   1.516       .  S
C548        H552   1.083       .  S
C549        F562   1.384       .  S
C549        F563   1.382       .  S
C549        F564   1.383       .  S
C551        F559   1.385       .  S
C551        F560   1.379       .  S
C551        F561   1.382       .  S
C565        C566   1.400       .  A
C565        C570   1.406       .  A
C565        H575   1.083       .  S
C566        C571   1.473       .  S
C566        C567   1.414       .  A
C567        C568   1.400       .  A
C567        C572   1.522       .  S
C568        C569   1.403       .  A
C568        H573   1.082       .  S
C569        C570   1.421       .  A
C570        C574   1.520       .  S
C571        C576   1.411       .  A
C571        C580   1.396       .  A
C572        F588   1.382       .  S
C572        F589   1.381       .  S
C572        F590   1.384       .  S
C574        F585   1.385       .  S
C574        F586   1.382   1_455  S
C574        F587   1.382       .  S
C576        C577   1.405       .  A
C576        C581   1.518       .  S
C577        C578   1.405       .  A
C577        H582   1.084       .  S
C578        C579   1.424       .  A
C579        C580   1.400       .  A
C579        C583   1.521       .  S
C580        H584   1.084       .  S
C581        F594   1.385       .  S
C581        F595   1.383       .  S
C581        F596   1.381       .  S
C583        F591   1.385       .  S
C583        F592   1.382       .  S
C583        F593   1.380       .  S
C597        C598   1.404       .  A
C597        C602   1.413       .  A
C597        H607   1.083       .  S
C598        C603   1.488       .  S
C598        C599   1.412       .  A
C599        C600   1.404       .  A
C599        C604   1.521       .  S
C600        C601   1.410       .  A
C600        H605   1.076       .  S
C601        C602   1.424       .  A
C602        C606   1.520       .  S
C603        C608   1.411       .  A
C603        C612   1.400       .  A
C604        F620   1.382       .  S
C604        F621   1.382       .  S
C604        F622   1.385       .  S
C606        F617   1.382       .  S
C606        F618   1.384       .  S
C606        F619   1.378       .  S
C608        C609   1.407       .  A
C608        C613   1.521       .  S
C609        C610   1.415       .  A
C609        H614   1.083       .  S
C610        C611   1.427       .  A
C611        C612   1.412       .  A
C611        C615   1.516       .  S
C612        H616   1.083       .  S
C613        F626   1.384       .  S
C613        F627   1.383       .  S
C613        F628   1.383       .  S
C615        F623   1.382       .  S
C615        F624   1.378       .  S
C615        F625   1.385       .  S
O629        C637   1.299       .  A
O629       Co649   2.117   1_554  S
O630        C638   1.278       .  A
O630       Co964   2.052   1_554  S
O631        C639   1.275       .  A
O631      Co1907   1.984   1_455  S
O632        C640   1.250       .  A
O632       Co966   1.968       .  S
O633        C639   1.274       .  A
O634        C640   1.264       .  A
O635        C638   1.260       .  A
O635      Co2222   1.953       .  S
O636        C637   1.263       .  A
O636       Co651   1.881       .  S
C637        C924   1.503       .  S
C638        C700   1.507       .  S
C639        C755   1.489       .  S
C640        C787   1.497       .  S
O641        C654   1.268       .  A
O642        C655   1.258       .  A
O643        C656   1.297       .  A
O643       Co965   2.115       .  S
O644        C657   1.273       .  A
O644      Co1908   2.030       .  S
O645        C657   1.260       .  A
O645       Co650   1.971       .  S
O646        C656   1.262       .  A
O646       Co963   1.894       .  S
O647        C654   1.280       .  A
O647       Co652   2.040       .  S
O648        C655   1.258       .  A
O648      Co2221   1.987   1_455  S
Co649       O960   1.894       .  S
Co649       O653   2.014   1_566  S
Co650       O944   2.033       .  S
Co650      O1595   2.030       .  S
Co651      O1887   1.984       .  S
Co651       O957   2.126   1_554  S
Co651      O2218   1.979   1_554  S
Co651       O653   2.002   1_565  S
Co652       O946   1.965       .  S
Co652      O2205   1.958       .  S
Co652      O1900   2.030       .  S
O653      Co1592   2.033   1_554  S
C654        C851   1.502       .  S
C655        C883   1.475       .  S
C656        C819   1.487       .  S
C657        C723   1.507       .  S
O658        C666   1.265       .  A
O658       Co678   1.976       .  S
O659        C667   1.255       .  A
O659       Co679   2.007       .  S
O660        C668   1.249       .  A
O660       Co680   1.978       .  S
O661        C669   1.270       .  A
O661       Co681   2.022       .  S
O662        C668   1.249       .  A
O662       Co679   1.980       .  S
O663        C669   1.263       .  A
O663       Co678   1.980       .  S
O664        C667   1.252       .  A
O664       Co681   1.980       .  S
O665        C666   1.269       .  A
O665       Co680   2.012       .  S
C666        C828   1.500       .  S
C667        C732   1.507       .  S
C668        C892   1.479       .  S
C669        C860   1.486       .  S
O670        C683   1.265       .  A
O670       Co678   2.016       .  S
O671        C684   1.306       .  A
O671       Co679   2.085       .  S
O672        C685   1.257       .  A
O672       Co680   2.000       .  S
O673        C686   1.271       .  A
O673       Co681   1.891       .  S
O674        C686   1.300       .  A
O674       Co679   2.086       .  S
O675        C685   1.265       .  A
O675       Co678   2.007       .  S
O676        C683   1.257       .  A
O676       Co681   1.993       .  S
O677        C684   1.269       .  A
O677       Co680   1.888       .  S
Co678       O682   2.089       .  S
Co679       O682   2.264       .  S
Co680       O682   1.915       .  S
Co681       O682   1.912       .  S
C683        C796   1.485       .  S
C684        C764   1.492       .  S
C685        C915   1.496       .  S
C686        C691   1.502       .  S
C687        C688   1.403       .  A
C687        C692   1.413       .  A
C687        H697   1.083       .  S
C688        C693   1.490       .  S
C688        C689   1.411       .  A
C689        C690   1.406       .  A
C689        C694   1.520       .  S
C690        C691   1.412       .  A
C690        H695   1.081       .  S
C691        C692   1.428       .  A
C692        C696   1.521       .  S
C693        C698   1.412       .  A
C693        C702   1.403       .  A
C694        F710   1.382       .  S
C694        F711   1.382       .  S
C694        F712   1.385       .  S
C696        F707   1.385       .  S
C696        F708   1.383       .  S
C696        F709   1.384       .  S
C698        C699   1.404       .  A
C698        C703   1.524       .  S
C699        C700   1.414       .  A
C699        H704   1.080       .  S
C700        C701   1.426       .  A
C701        C702   1.416       .  A
C701        C705   1.517       .  S
C702        H706   1.083       .  S
C703        F716   1.385       .  S
C703        F717   1.382       .  S
C703        F718   1.382       .  S
C705        F713   1.385       .  S
C705       F1028   1.382   1_554  S
C705       F1029   1.384       .  S
F714       C1019   1.383       .  S
F715       C1019   1.382       .  S
C719        C720   1.401       .  A
C719        C724   1.412       .  A
C719        H729   1.084       .  S
C720        C725   1.495       .  S
C720        C721   1.414       .  A
C721        C722   1.412       .  A
C721        C726   1.519       .  S
C722        C723   1.413       .  A
C722        H727   1.083       .  S
C723        C724   1.427       .  A
C724        C728   1.520       .  S
C725        C730   1.416       .  A
C725        C734   1.399       .  A
C726        F742   1.383       .  S
C726        F743   1.382       .  S
C726        F744   1.385       .  S
C728        F739   1.383       .  S
C728        F740   1.385       .  S
C728        F741   1.384       .  S
C730        C731   1.411       .  A
C730        C735   1.519       .  S
C731        C732   1.409       .  A
C731        H736   1.082       .  S
C732        C733   1.432       .  A
C733        C734   1.413       .  A
C733        C737   1.521       .  S
C734        H738   1.083       .  S
C735        F748   1.385       .  S
C735        F749   1.382       .  S
C735        F750   1.382       .  S
C737        F745   1.385       .  S
C737        F746   1.383       .  S
C737        F747   1.381       .  S
C751        C752   1.397       .  A
C751        C756   1.407       .  A
C751        H761   1.084       .  S
C752        C757   1.485       .  S
C752        C753   1.415       .  A
C753        C754   1.408       .  A
C753        C758   1.518       .  S
C754        C755   1.404       .  A
C754        H759   1.083       .  S
C755        C756   1.429       .  A
C756        C760   1.522       .  S
C757        C762   1.414       .  A
C757        C766   1.400       .  A
C758        F774   1.382       .  S
C758        F775   1.382       .  S
C758        F776   1.384       .  S
C760        F771   1.379   1_554  S
C760        F772   1.385       .  S
C760        F773   1.382   1_554  S
C762        C763   1.405       .  A
C762        C767   1.520       .  S
C763        C764   1.406       .  A
C763        H768   1.083       .  S
C764        C765   1.427       .  A
C765        C766   1.409       .  A
C765        C769   1.521       .  S
C766        H770   1.083       .  S
C767        F780   1.385       .  S
C767        F781   1.382       .  S
C767        F782   1.383       .  S
C769        F777   1.383       .  S
C769        F778   1.383       .  S
C769        F779   1.385       .  S
C783        C784   1.399       .  A
C783        C788   1.409       .  A
C783        H793   1.084       .  S
C784        C789   1.486       .  S
C784        C785   1.414       .  A
C785        C786   1.409       .  A
C785        C790   1.521       .  S
C786        C787   1.410       .  A
C786        H791   1.084       .  S
C787        C788   1.429       .  A
C788        C792   1.523       .  S
C789        C794   1.413       .  A
C789        C798   1.404       .  A
C790        F806   1.383       .  S
C790        F807   1.381       .  S
C790        F808   1.384       .  S
C792        F803   1.385       .  S
C792        F804   1.382       .  S
C792        F805   1.380       .  S
C794        C795   1.405       .  A
C794        C799   1.521       .  S
C795        C796   1.405       .  A
C795        H800   1.085       .  S
C796        C797   1.419       .  A
C797        C798   1.411       .  A
C797        C801   1.517       .  S
C798        H802   1.085       .  S
C799        F812   1.384       .  S
C799        F813   1.383       .  S
C799        F814   1.380       .  S
C801        F809   1.381       .  S
C801        F810   1.377       .  S
C801        F811   1.385       .  S
C815        C816   1.399       .  A
C815        C820   1.406       .  A
C815        H825   1.082       .  S
C816        C821   1.483       .  S
C816        C817   1.414       .  A
C817        C818   1.407       .  A
C817        C822   1.520       .  S
C818        C819   1.407       .  A
C818        H823   1.083       .  S
C819        C820   1.424       .  A
C820        C824   1.521       .  S
C821        C826   1.412       .  A
C821        C830   1.400       .  A
C822        F838   1.382       .  S
C822        F839   1.381       .  S
C822        F840   1.385       .  S
C824        F835   1.383       .  S
C824        F836   1.385       .  S
C824        F837   1.382       .  S
C826        C827   1.405       .  A
C826        C831   1.523       .  S
C827        C828   1.412       .  A
C827        H832   1.081       .  S
C828        C829   1.428       .  A
C829        C830   1.411       .  A
C829        C833   1.521       .  S
C830        H834   1.082       .  S
C831        F844   1.384       .  S
C831        F845   1.382       .  S
C831        F846   1.381       .  S
C833        F841   1.383       .  S
C833        F842   1.383       .  S
C833        F843   1.385       .  S
C847        C848   1.400       .  A
C847        C852   1.409       .  A
C847        H857   1.083       .  S
C848        C853   1.489       .  S
C848        C849   1.413       .  A
C849        C850   1.410       .  A
C849        C854   1.521       .  S
C850        C851   1.414       .  A
C850        H855   1.082       .  S
C851        C852   1.426       .  A
C852        C856   1.519       .  S
C853        C858   1.417       .  A
C853        C862   1.401       .  A
C854        F870   1.382       .  S
C854        F871   1.383       .  S
C854        F872   1.384       .  S
C856       F1181   1.383       .  S
C856       F1182   1.384       .  S
C856       F1183   1.379       .  S
C858        C859   1.409       .  A
C858        C863   1.520       .  S
C859        C860   1.404       .  A
C859        H864   1.084       .  S
C860        C861   1.420       .  A
C861        C862   1.408       .  A
C861        C865   1.515       .  S
C862        H866   1.083       .  S
C863        F876   1.384       .  S
C863        F877   1.382       .  S
C863        F878   1.383       .  S
C865        F873   1.385       .  S
C865        F874   1.380       .  S
C865        F875   1.380       .  S
F867       C1170   1.383       .  S
F868       C1170   1.385       .  S
F869       C1170   1.381       .  S
C879        C880   1.400       .  A
C879        C884   1.405       .  A
C879        H889   1.083       .  S
C880        C885   1.472       .  S
C880        C881   1.413       .  A
C881        C882   1.398       .  A
C881        C886   1.522       .  S
C882        C883   1.405       .  A
C882        H887   1.082       .  S
C883        C884   1.420       .  A
C884        C888   1.519       .  S
C885        C890   1.414       .  A
C885        C894   1.392       .  A
C886        F902   1.382       .  S
C886        F903   1.382       .  S
C886        F904   1.385       .  S
C888        F899   1.385       .  S
C888        F900   1.382   1_455  S
C888        F901   1.383       .  S
C890        C891   1.409       .  A
C890        C895   1.519       .  S
C891        C892   1.406       .  A
C891        H896   1.083       .  S
C892        C893   1.425       .  A
C893        C894   1.398       .  A
C893        C897   1.520       .  S
C894        H898   1.083       .  S
C895        F908   1.384       .  S
C895        F909   1.383       .  S
C895        F910   1.382       .  S
C897        F905   1.385       .  S
C897        F906   1.382       .  S
C897        F907   1.378       .  S
C911        C912   1.403       .  A
C911        C916   1.412       .  A
C911        H921   1.082       .  S
C912        C917   1.487       .  S
C912        C913   1.411       .  A
C913        C914   1.406       .  A
C913        C918   1.522       .  S
C914        C915   1.412       .  A
C914        H919   1.075       .  S
C915        C916   1.425       .  A
C916        C920   1.520       .  S
C917        C922   1.411       .  A
C917        C926   1.401       .  A
C918        F934   1.382       .  S
C918        F935   1.382       .  S
C918        F936   1.384       .  S
C920        F931   1.382       .  S
C920        F932   1.385       .  S
C920        F933   1.377       .  S
C922        C923   1.405       .  A
C922        C927   1.522       .  S
C923        C924   1.414       .  A
C923        H928   1.083       .  S
C924        C925   1.426       .  A
C925        C926   1.412       .  A
C925        C929   1.518       .  S
C926        H930   1.083       .  S
C927        F940   1.385       .  S
C927        F941   1.382       .  S
C927        F942   1.382       .  S
C929        F937   1.382       .  S
C929        F938   1.378       .  S
C929        F939   1.385       .  S
O943        C951   1.300       .  A
O943       Co963   2.122       .  S
O944        C952   1.273       .  A
O945        C953   1.273       .  A
O945      Co2221   1.981   1_455  S
O946        C954   1.251       .  A
O947        C953   1.276       .  A
O948        C954   1.262       .  A
O949        C952   1.263       .  A
O949      Co1908   1.958       .  S
O950        C951   1.264       .  A
O950       Co965   1.887       .  S
C951       C1238   1.507       .  S
C952       C1014   1.499       .  S
C953       C1069   1.498       .  S
C954       C1101   1.486       .  S
O955        C968   1.265       .  A
O956        C969   1.259       .  A
O957        C970   1.298       .  A
O958        C971   1.273       .  A
O958      Co2222   2.030   1_556  S
O959        C971   1.256       .  A
O959       Co964   1.961       .  S
O960        C970   1.261       .  A
O961        C968   1.278       .  A
O961       Co966   2.039   1_556  S
O962        C969   1.256       .  A
O962      Co1907   1.979   1_456  S
Co963       O967   2.023   1_565  S
Co964      O1281   2.033   1_556  S
Co965      O2201   1.981       .  S
Co965      O1904   1.987       .  S
Co965       O967   2.005   1_565  S
Co966      O1891   1.953       .  S
Co966      O2214   2.030   1_554  S
O967      Co1278   2.030       .  S
C968       C1165   1.495       .  S
C969       C1197   1.475       .  S
C970       C1133   1.492       .  S
C971       C1037   1.487       .  S
O972        C980   1.268       .  A
O972       Co992   1.986       .  S
O973        C981   1.258       .  A
O973       Co993   2.010       .  S
O974        C982   1.247       .  A
O974       Co994   1.969       .  S
O975        C983   1.268       .  A
O975       Co995   2.020       .  S
O976        C982   1.249       .  A
O976       Co993   1.985       .  S
O977        C983   1.264       .  A
O977       Co992   1.981       .  S
O978        C981   1.248       .  A
O978       Co995   1.962       .  S
O979        C980   1.270       .  A
O979       Co994   2.014       .  S
C980       C1142   1.502       .  S
C981       C1046   1.486       .  S
C982       C1206   1.477       .  S
C983       C1174   1.483       .  S
O984        C997   1.267       .  A
O984       Co992   2.024       .  S
O985        C998   1.306       .  A
O985       Co993   2.090       .  S
O986        C999   1.256       .  A
O986       Co994   1.997       .  S
O987       C1000   1.268       .  A
O987       Co995   1.884       .  S
O988       C1000   1.299       .  A
O988       Co993   2.089       .  S
O989        C999   1.264       .  A
O989       Co992   2.003       .  S
O990        C997   1.255       .  A
O990       Co995   1.983       .  S
O991        C998   1.267       .  A
O991       Co994   1.881       .  S
Co992       O996   2.091       .  S
Co993       O996   2.263       .  S
Co994       O996   1.908       .  S
Co995       O996   1.914       .  S
C997       C1110   1.483       .  S
C998       C1078   1.492       .  S
C999       C1229   1.493       .  S
C1000      C1005   1.497       .  S
C1001      C1002   1.400       .  A
C1001      C1006   1.410       .  A
C1001      H1011   1.082       .  S
C1002      C1007   1.483       .  S
C1002      C1003   1.410       .  A
C1003      C1004   1.404       .  A
C1003      C1008   1.520       .  S
C1004      C1005   1.412       .  A
C1004      H1009   1.082       .  S
C1005      C1006   1.426       .  A
C1006      C1010   1.520       .  S
C1007      C1012   1.412       .  A
C1007      C1016   1.401       .  A
C1008      F1024   1.382       .  S
C1008      F1025   1.383       .  S
C1008      F1026   1.385       .  S
C1010      F1021   1.385       .  S
C1010      F1022   1.383       .  S
C1010      F1023   1.383       .  S
C1012      C1013   1.401       .  A
C1012      C1017   1.523       .  S
C1013      C1014   1.411       .  A
C1013      H1018   1.082       .  S
C1014      C1015   1.427       .  A
C1015      C1016   1.413       .  A
C1015      C1019   1.518       .  S
C1016      H1020   1.083       .  S
C1017      F1030   1.384       .  S
C1017      F1031   1.382       .  S
C1017      F1032   1.382       .  S
C1019      F1027   1.385       .  S
C1033      C1034   1.400       .  A
C1033      C1038   1.406       .  A
C1033      H1043   1.084       .  S
C1034      C1039   1.485       .  S
C1034      C1035   1.416       .  A
C1035      C1036   1.408       .  A
C1035      C1040   1.521       .  S
C1036      C1037   1.407       .  A
C1036      H1041   1.084       .  S
C1037      C1038   1.422       .  A
C1038      C1042   1.518       .  S
C1039      C1044   1.417       .  A
C1039      C1048   1.399       .  A
C1040      F1056   1.382       .  S
C1040      F1057   1.382       .  S
C1040      F1058   1.384       .  S
C1042      F1053   1.382       .  S
C1042      F1054   1.385       .  S
C1042      F1055   1.380       .  S
C1044      C1045   1.408       .  A
C1044      C1049   1.520       .  S
C1045      C1046   1.405       .  A
C1045      H1050   1.083       .  S
C1046      C1047   1.420       .  A
C1047      C1048   1.405       .  A
C1047      C1051   1.513       .  S
C1048      H1052   1.083       .  S
C1049      F1062   1.385       .  S
C1049      F1063   1.382       .  S
C1049      F1064   1.382       .  S
C1051      F1059   1.385       .  S
C1051      F1060   1.382       .  S
C1051      F1061   1.379       .  S
C1065      C1066   1.395       .  A
C1065      C1070   1.406       .  A
C1065      H1075   1.084       .  S
C1066      C1071   1.485       .  S
C1066      C1067   1.414       .  A
C1067      C1068   1.410       .  A
C1067      C1072   1.520       .  S
C1068      C1069   1.409       .  A
C1068      H1073   1.083       .  S
C1069      C1070   1.432       .  A
C1070      C1074   1.522       .  S
C1071      C1076   1.414       .  A
C1071      C1080   1.398       .  A
C1072      F1088   1.383       .  S
C1072      F1089   1.383       .  S
C1072      F1090   1.384       .  S
C1074      F1085   1.379       .  S
C1074      F1086   1.385       .  S
C1074      F1087   1.382       .  S
C1076      C1077   1.405       .  A
C1076      C1081   1.519       .  S
C1077      C1078   1.406       .  A
C1077      H1082   1.083       .  S
C1078      C1079   1.429       .  A
C1079      C1080   1.408       .  A
C1079      C1083   1.522       .  S
C1080      H1084   1.084       .  S
C1081      F1094   1.385       .  S
C1081      F1095   1.382       .  S
C1081      F1096   1.382       .  S
C1083      F1091   1.384       .  S
C1083      F1092   1.383       .  S
C1083      F1093   1.385       .  S
C1097      C1098   1.399       .  A
C1097      C1102   1.406       .  A
C1097      H1107   1.084       .  S
C1098      C1103   1.479       .  S
C1098      C1099   1.412       .  A
C1099      C1100   1.405       .  A
C1099      C1104   1.521       .  S
C1100      C1101   1.409       .  A
C1100      H1105   1.084       .  S
C1101      C1102   1.426       .  A
C1102      C1106   1.522       .  S
C1103      C1108   1.411       .  A
C1103      C1112   1.402       .  A
C1104      F1120   1.383       .  S
C1104      F1121   1.381       .  S
C1104      F1122   1.385       .  S
C1106      F1117   1.385       .  S
C1106      F1118   1.383       .  S
C1106      F1119   1.379       .  S
C1108      C1109   1.403       .  A
C1108      C1113   1.522       .  S
C1109      C1110   1.407       .  A
C1109      H1114   1.082       .  S
C1110      C1111   1.417       .  A
C1111      C1112   1.408       .  A
C1111      C1115   1.516       .  S
C1112      H1116   1.085       .  S
C1113      F1126   1.384       .  S
C1113      F1127   1.383       .  S
C1113      F1128   1.381       .  S
C1115      F1123   1.381       .  S
C1115      F1124   1.377       .  S
C1115      F1125   1.385       .  S
C1129      C1130   1.398       .  A
C1129      C1134   1.407       .  A
C1129      H1139   1.082       .  S
C1130      C1135   1.489       .  S
C1130      C1131   1.417       .  A
C1131      C1132   1.413       .  A
C1131      C1136   1.519       .  S
C1132      C1133   1.406       .  A
C1132      H1137   1.083       .  S
C1133      C1134   1.424       .  A
C1134      C1138   1.518       .  S
C1135      C1140   1.413       .  A
C1135      C1144   1.401       .  A
C1136      F1152   1.383       .  S
C1136      F1153   1.382       .  S
C1136      F1154   1.384       .  S
C1138      F1149   1.379   1_556  S
C1138      F1150   1.384       .  S
C1138      F1151   1.382       .  S
C1140      C1141   1.407       .  A
C1140      C1145   1.521       .  S
C1141      C1142   1.411       .  A
C1141      H1146   1.082       .  S
C1142      C1143   1.428       .  A
C1143      C1144   1.413       .  A
C1143      C1147   1.520       .  S
C1144      H1148   1.082       .  S
C1145      F1158   1.384       .  S
C1145      F1159   1.383       .  S
C1145      F1160   1.382       .  S
C1147      F1155   1.384       .  S
C1147      F1156   1.382       .  S
C1147      F1157   1.385       .  S
C1161      C1162   1.403       .  A
C1161      C1166   1.409       .  A
C1161      H1171   1.082       .  S
C1162      C1167   1.486       .  S
C1162      C1163   1.413       .  A
C1163      C1164   1.403       .  A
C1163      C1168   1.522       .  S
C1164      C1165   1.412       .  A
C1164      H1169   1.081       .  S
C1165      C1166   1.423       .  A
C1166      C1170   1.519       .  S
C1167      C1172   1.417       .  A
C1167      C1176   1.400       .  A
C1168      F1184   1.381       .  S
C1168      F1185   1.382       .  S
C1168      F1186   1.386       .  S
C1172      C1173   1.407       .  A
C1172      C1177   1.519       .  S
C1173      C1174   1.404       .  A
C1173      H1178   1.084       .  S
C1174      C1175   1.420       .  A
C1175      C1176   1.407       .  A
C1175      C1179   1.516       .  S
C1176      H1180   1.083       .  S
C1177      F1190   1.384       .  S
C1177      F1191   1.382       .  S
C1177      F1192   1.383       .  S
C1179      F1187   1.385       .  S
C1179      F1188   1.379       .  S
C1179      F1189   1.382       .  S
C1193      C1194   1.400       .  A
C1193      C1198   1.406       .  A
C1193      H1203   1.083       .  S
C1194      C1199   1.473       .  S
C1194      C1195   1.414       .  A
C1195      C1196   1.400       .  A
C1195      C1200   1.522       .  S
C1196      C1197   1.403       .  A
C1196      H1201   1.082       .  S
C1197      C1198   1.421       .  A
C1198      C1202   1.520       .  S
C1199      C1204   1.411       .  A
C1199      C1208   1.396       .  A
C1200      F1216   1.382       .  S
C1200      F1217   1.381       .  S
C1200      F1218   1.384       .  S
C1202      F1213   1.385       .  S
C1202      F1214   1.382   1_455  S
C1202      F1215   1.382       .  S
C1204      C1205   1.405       .  A
C1204      C1209   1.518       .  S
C1205      C1206   1.405       .  A
C1205      H1210   1.084       .  S
C1206      C1207   1.424       .  A
C1207      C1208   1.400       .  A
C1207      C1211   1.521       .  S
C1208      H1212   1.084       .  S
C1209      F1222   1.385       .  S
C1209      F1223   1.383       .  S
C1209      F1224   1.381       .  S
C1211      F1219   1.385       .  S
C1211      F1220   1.382       .  S
C1211      F1221   1.380       .  S
C1225      C1226   1.404       .  A
C1225      C1230   1.413       .  A
C1225      H1235   1.083       .  S
C1226      C1231   1.488       .  S
C1226      C1227   1.412       .  A
C1227      C1228   1.404       .  A
C1227      C1232   1.521       .  S
C1228      C1229   1.410       .  A
C1228      H1233   1.076       .  S
C1229      C1230   1.424       .  A
C1230      C1234   1.520       .  S
C1231      C1236   1.411       .  A
C1231      C1240   1.400       .  A
C1232      F1248   1.382       .  S
C1232      F1249   1.382       .  S
C1232      F1250   1.385       .  S
C1234      F1245   1.382       .  S
C1234      F1246   1.384       .  S
C1234      F1247   1.378       .  S
C1236      C1237   1.407       .  A
C1236      C1241   1.521       .  S
C1237      C1238   1.415       .  A
C1237      H1242   1.083       .  S
C1238      C1239   1.427       .  A
C1239      C1240   1.412       .  A
C1239      C1243   1.516       .  S
C1240      H1244   1.083       .  S
C1241      F1254   1.384       .  S
C1241      F1255   1.383       .  S
C1241      F1256   1.383       .  S
C1243      F1251   1.382       .  S
C1243      F1252   1.378       .  S
C1243      F1253   1.385       .  S
O1257      C1265   1.300       .  A
O1257     Co1277   2.117   1_554  S
O1258      C1266   1.278       .  A
O1258     Co1592   2.052   1_554  S
O1259      C1267   1.275       .  A
O1260      C1268   1.250       .  A
O1260     Co1594   1.968   1_655  S
O1261      C1267   1.274       .  A
O1261     Co2220   2.014   1_554  S
O1262      C1268   1.264       .  A
O1262     Co1905   2.021   1_544  S
O1263      C1266   1.260       .  A
O1264      C1265   1.263       .  A
O1264     Co1279   1.881       .  S
C1265      C1552   1.503       .  S
C1266      C1328   1.507       .  S
C1267      C1383   1.489       .  S
C1268      C1415   1.497       .  S
O1269      C1282   1.268       .  A
O1269     Co2219   1.969   1_545  S
O1270      C1283   1.258       .  A
O1270     Co1906   1.972       .  S
O1271      C1284   1.297       .  A
O1271     Co1593   2.115       .  S
O1272      C1285   1.273       .  A
O1273      C1285   1.260       .  A
O1273     Co1278   1.971       .  S
O1274      C1284   1.262       .  A
O1274     Co1591   1.893       .  S
O1275      C1282   1.280       .  A
O1275     Co1280   2.040   1_655  S
O1276      C1283   1.258       .  A
Co1277     O1890   2.021   1_556  S
Co1277     O2211   1.954       .  S
Co1277     O1588   1.894       .  S
Co1277     O1281   2.014   1_656  S
Co1278     O1572   2.033       .  S
Co1278     O2203   2.024   1_545  S
Co1278     O1898   1.972   1_545  S
Co1279     O1585   2.126   1_554  S
Co1279     O1281   2.002   1_655  S
Co1280     O1574   1.966   1_455  S
Co1280     O2223   2.022       .  S
O1281     Co2222   2.029       .  S
C1282      C1479   1.502       .  S
C1283      C1511   1.475       .  S
C1284      C1447   1.487       .  S
C1285      C1351   1.507       .  S
O1286      C1294   1.265       .  A
O1286     Co1306   1.976       .  S
O1287      C1295   1.255       .  A
O1287     Co1307   2.007       .  S
O1288      C1296   1.249       .  A
O1288     Co1308   1.978       .  S
O1289      C1297   1.270       .  A
O1289     Co1309   2.022       .  S
O1290      C1296   1.249       .  A
O1290     Co1307   1.980       .  S
O1291      C1297   1.263       .  A
O1291     Co1306   1.980       .  S
O1292      C1295   1.252       .  A
O1292     Co1309   1.980       .  S
O1293      C1294   1.269       .  A
O1293     Co1308   2.012       .  S
C1294      C1456   1.500       .  S
C1295      C1360   1.507       .  S
C1296      C1520   1.479       .  S
C1297      C1488   1.486       .  S
O1298      C1311   1.265       .  A
O1298     Co1306   2.016       .  S
O1299      C1312   1.306       .  A
O1299     Co1307   2.086       .  S
O1300      C1313   1.257       .  A
O1300     Co1308   2.000       .  S
O1301      C1314   1.271       .  A
O1301     Co1309   1.891       .  S
O1302      C1314   1.300       .  A
O1302     Co1307   2.086       .  S
O1303      C1313   1.265       .  A
O1303     Co1306   2.007       .  S
O1304      C1311   1.257       .  A
O1304     Co1309   1.993       .  S
O1305      C1312   1.269       .  A
O1305     Co1308   1.888       .  S
Co1306     O1310   2.089       .  S
Co1307     O1310   2.264       .  S
Co1308     O1310   1.915       .  S
Co1309     O1310   1.912       .  S
C1311      C1424   1.485       .  S
C1312      C1392   1.492       .  S
C1313      C1543   1.496       .  S
C1314      C1319   1.502       .  S
C1315      C1316   1.403       .  A
C1315      C1320   1.413       .  A
C1315      H1325   1.083       .  S
C1316      C1321   1.490       .  S
C1316      C1317   1.411       .  A
C1317      C1318   1.405       .  A
C1317      C1322   1.520       .  S
C1318      C1319   1.412       .  A
C1318      H1323   1.081       .  S
C1319      C1320   1.428       .  A
C1320      C1324   1.521       .  S
C1321      C1326   1.412       .  A
C1321      C1330   1.403       .  A
C1322      F1338   1.382       .  S
C1322      F1339   1.382       .  S
C1322      F1340   1.385       .  S
C1324      F1335   1.385       .  S
C1324      F1336   1.383       .  S
C1324      F1337   1.384       .  S
C1326      C1327   1.404       .  A
C1326      C1331   1.524       .  S
C1327      C1328   1.414       .  A
C1327      H1332   1.080       .  S
C1328      C1329   1.426       .  A
C1329      C1330   1.416       .  A
C1329      C1333   1.517       .  S
C1330      H1334   1.083       .  S
C1331      F1344   1.385       .  S
C1331      F1345   1.382       .  S
C1331      F1346   1.382       .  S
C1333      F1341   1.385       .  S
C1333      F1656   1.382   1_554  S
C1333      F1657   1.384       .  S
F1342      C1647   1.383       .  S
F1343      C1647   1.382       .  S
C1347      C1348   1.401       .  A
C1347      C1352   1.411       .  A
C1347      H1357   1.084       .  S
C1348      C1353   1.495       .  S
C1348      C1349   1.414       .  A
C1349      C1350   1.412       .  A
C1349      C1354   1.519       .  S
C1350      C1351   1.413       .  A
C1350      H1355   1.083       .  S
C1351      C1352   1.428       .  A
C1352      C1356   1.520       .  S
C1353      C1358   1.416       .  A
C1353      C1362   1.399       .  A
C1354      F1370   1.383       .  S
C1354      F1371   1.382       .  S
C1354      F1372   1.385       .  S
C1356      F1367   1.383       .  S
C1356      F1368   1.385       .  S
C1356      F1369   1.384       .  S
C1358      C1359   1.411       .  A
C1358      C1363   1.519       .  S
C1359      C1360   1.409       .  A
C1359      H1364   1.082       .  S
C1360      C1361   1.432       .  A
C1361      C1362   1.413       .  A
C1361      C1365   1.521       .  S
C1362      H1366   1.083       .  S
C1363      F1376   1.385       .  S
C1363      F1377   1.382       .  S
C1363      F1378   1.382       .  S
C1365      F1373   1.385       .  S
C1365      F1374   1.383       .  S
C1365      F1375   1.381       .  S
C1379      C1380   1.397       .  A
C1379      C1384   1.407       .  A
C1379      H1389   1.084       .  S
C1380      C1385   1.485       .  S
C1380      C1381   1.415       .  A
C1381      C1382   1.408       .  A
C1381      C1386   1.518       .  S
C1382      C1383   1.404       .  A
C1382      H1387   1.083       .  S
C1383      C1384   1.429       .  A
C1384      C1388   1.522       .  S
C1385      C1390   1.414       .  A
C1385      C1394   1.400       .  A
C1386      F1402   1.382       .  S
C1386      F1403   1.382       .  S
C1386      F1404   1.384       .  S
C1388      F1399   1.379   1_554  S
C1388      F1400   1.385       .  S
C1388      F1401   1.382   1_554  S
C1390      C1391   1.405       .  A
C1390      C1395   1.520       .  S
C1391      C1392   1.406       .  A
C1391      H1396   1.083       .  S
C1392      C1393   1.427       .  A
C1393      C1394   1.409       .  A
C1393      C1397   1.521       .  S
C1394      H1398   1.083       .  S
C1395      F1408   1.385       .  S
C1395      F1409   1.382       .  S
C1395      F1410   1.383       .  S
C1397      F1405   1.383       .  S
C1397      F1406   1.383       .  S
C1397      F1407   1.385       .  S
C1411      C1412   1.399       .  A
C1411      C1416   1.409       .  A
C1411      H1421   1.084       .  S
C1412      C1417   1.486       .  S
C1412      C1413   1.414       .  A
C1413      C1414   1.409       .  A
C1413      C1418   1.521       .  S
C1414      C1415   1.410       .  A
C1414      H1419   1.084       .  S
C1415      C1416   1.429       .  A
C1416      C1420   1.523       .  S
C1417      C1422   1.413       .  A
C1417      C1426   1.404       .  A
C1418      F1434   1.383       .  S
C1418      F1435   1.381       .  S
C1418      F1436   1.384       .  S
C1420      F1431   1.385       .  S
C1420      F1432   1.382       .  S
C1420      F1433   1.380       .  S
C1422      C1423   1.405       .  A
C1422      C1427   1.521       .  S
C1423      C1424   1.405       .  A
C1423      H1428   1.085       .  S
C1424      C1425   1.419       .  A
C1425      C1426   1.411       .  A
C1425      C1429   1.517       .  S
C1426      H1430   1.085       .  S
C1427      F1440   1.384       .  S
C1427      F1441   1.383       .  S
C1427      F1442   1.380       .  S
C1429      F1437   1.381       .  S
C1429      F1438   1.377       .  S
C1429      F1439   1.385       .  S
C1443      C1444   1.399       .  A
C1443      C1448   1.406       .  A
C1443      H1453   1.082       .  S
C1444      C1449   1.483       .  S
C1444      C1445   1.414       .  A
C1445      C1446   1.407       .  A
C1445      C1450   1.520       .  S
C1446      C1447   1.407       .  A
C1446      H1451   1.083       .  S
C1447      C1448   1.424       .  A
C1448      C1452   1.521       .  S
C1449      C1454   1.412       .  A
C1449      C1458   1.400       .  A
C1450      F1466   1.382       .  S
C1450      F1467   1.381       .  S
C1450      F1468   1.385       .  S
C1452      F1463   1.383       .  S
C1452      F1464   1.385       .  S
C1452      F1465   1.382       .  S
C1454      C1455   1.405       .  A
C1454      C1459   1.523       .  S
C1455      C1456   1.412       .  A
C1455      H1460   1.081       .  S
C1456      C1457   1.428       .  A
C1457      C1458   1.411       .  A
C1457      C1461   1.521       .  S
C1458      H1462   1.082       .  S
C1459      F1472   1.384       .  S
C1459      F1473   1.382       .  S
C1459      F1474   1.381       .  S
C1461      F1469   1.383       .  S
C1461      F1470   1.383       .  S
C1461      F1471   1.385       .  S
C1475      C1476   1.400       .  A
C1475      C1480   1.409       .  A
C1475      H1485   1.083       .  S
C1476      C1481   1.489       .  S
C1476      C1477   1.413       .  A
C1477      C1478   1.410       .  A
C1477      C1482   1.521       .  S
C1478      C1479   1.414       .  A
C1478      H1483   1.082       .  S
C1479      C1480   1.426       .  A
C1480      C1484   1.519       .  S
C1481      C1486   1.417       .  A
C1481      C1490   1.401       .  A
C1482      F1498   1.382       .  S
C1482      F1499   1.383       .  S
C1482      F1500   1.384       .  S
C1484      F1809   1.383       .  S
C1484      F1810   1.384       .  S
C1484      F1811   1.379       .  S
C1486      C1487   1.409       .  A
C1486      C1491   1.520       .  S
C1487      C1488   1.404       .  A
C1487      H1492   1.084       .  S
C1488      C1489   1.420       .  A
C1489      C1490   1.408       .  A
C1489      C1493   1.515       .  S
C1490      H1494   1.083       .  S
C1491      F1504   1.384       .  S
C1491      F1505   1.382       .  S
C1491      F1506   1.383       .  S
C1493      F1501   1.385       .  S
C1493      F1502   1.380       .  S
C1493      F1503   1.380       .  S
F1495      C1798   1.383       .  S
F1496      C1798   1.385       .  S
F1497      C1798   1.381       .  S
C1507      C1508   1.400       .  A
C1507      C1512   1.405       .  A
C1507      H1517   1.083       .  S
C1508      C1513   1.472       .  S
C1508      C1509   1.413       .  A
C1509      C1510   1.398       .  A
C1509      C1514   1.522       .  S
C1510      C1511   1.405       .  A
C1510      H1515   1.082       .  S
C1511      C1512   1.420       .  A
C1512      C1516   1.519       .  S
C1513      C1518   1.414       .  A
C1513      C1522   1.392       .  A
C1514      F1530   1.382       .  S
C1514      F1531   1.382       .  S
C1514      F1532   1.385       .  S
C1516      F1527   1.385       .  S
C1516      F1528   1.382       .  S
C1516      F1529   1.383       .  S
C1518      C1519   1.409       .  A
C1518      C1523   1.519       .  S
C1519      C1520   1.406       .  A
C1519      H1524   1.083       .  S
C1520      C1521   1.425       .  A
C1521      C1522   1.398       .  A
C1521      C1525   1.520       .  S
C1522      H1526   1.083       .  S
C1523      F1536   1.384       .  S
C1523      F1537   1.383       .  S
C1523      F1538   1.382       .  S
C1525      F1533   1.385       .  S
C1525      F1534   1.382       .  S
C1525      F1535   1.378       .  S
C1539      C1540   1.403       .  A
C1539      C1544   1.412       .  A
C1539      H1549   1.082       .  S
C1540      C1545   1.487       .  S
C1540      C1541   1.411       .  A
C1541      C1542   1.406       .  A
C1541      C1546   1.522       .  S
C1542      C1543   1.412       .  A
C1542      H1547   1.075       .  S
C1543      C1544   1.425       .  A
C1544      C1548   1.520       .  S
C1545      C1550   1.411       .  A
C1545      C1554   1.401       .  A
C1546      F1562   1.382       .  S
C1546      F1563   1.382       .  S
C1546      F1564   1.384       .  S
C1548      F1559   1.382       .  S
C1548      F1560   1.385       .  S
C1548      F1561   1.377       .  S
C1550      C1551   1.405       .  A
C1550      C1555   1.522       .  S
C1551      C1552   1.414       .  A
C1551      H1556   1.083       .  S
C1552      C1553   1.426       .  A
C1553      C1554   1.412       .  A
C1553      C1557   1.518       .  S
C1554      H1558   1.083       .  S
C1555      F1568   1.385       .  S
C1555      F1569   1.382       .  S
C1555      F1570   1.382       .  S
C1557      F1565   1.382       .  S
C1557      F1566   1.378       .  S
C1557      F1567   1.384       .  S
O1571      C1579   1.300       .  A
O1571     Co1591   2.122       .  S
O1572      C1580   1.273       .  A
O1573      C1581   1.273       .  A
O1574      C1582   1.251       .  A
O1575      C1581   1.276       .  A
O1575     Co1906   2.024       .  S
O1576      C1582   1.262       .  A
O1576     Co2219   2.006   1_545  S
O1577      C1580   1.263       .  A
O1578      C1579   1.264       .  A
O1578     Co1593   1.887       .  S
C1579      C1866   1.507       .  S
C1580      C1642   1.499       .  S
C1581      C1697   1.498       .  S
C1582      C1729   1.486       .  S
O1583      C1596   1.265       .  A
O1583     Co1905   1.954   1_545  S
O1584      C1597   1.259       .  A
O1584     Co2220   1.979       .  S
O1585      C1598   1.298       .  A
O1586      C1599   1.273       .  A
O1587      C1599   1.256       .  A
O1587     Co1592   1.961       .  S
O1588      C1598   1.261       .  A
O1589      C1596   1.278       .  A
O1589     Co1594   2.039   1_656  S
O1590      C1597   1.256       .  A
Co1591     O2204   2.006       .  S
Co1591     O1897   1.969       .  S
Co1591     O1595   2.023   1_655  S
Co1592     O1889   2.014   1_546  S
Co1592     O2212   1.979   1_545  S
Co1593     O1595   2.005   1_655  S
Co1594     O1909   2.029       .  S
O1595     Co1908   2.022       .  S
C1596      C1793   1.495       .  S
C1597      C1825   1.475       .  S
C1598      C1761   1.492       .  S
C1599      C1665   1.487       .  S
O1600      C1608   1.268       .  A
O1600     Co1620   1.986       .  S
O1601      C1609   1.258       .  A
O1601     Co1621   2.010       .  S
O1602      C1610   1.247       .  A
O1602     Co1622   1.969       .  S
O1603      C1611   1.268       .  A
O1603     Co1623   2.020       .  S
O1604      C1610   1.249       .  A
O1604     Co1621   1.985       .  S
O1605      C1611   1.264       .  A
O1605     Co1620   1.981       .  S
O1606      C1609   1.248       .  A
O1606     Co1623   1.962       .  S
O1607      C1608   1.270       .  A
O1607     Co1622   2.014       .  S
C1608      C1770   1.502       .  S
C1609      C1674   1.486       .  S
C1610      C1834   1.477       .  S
C1611      C1802   1.483       .  S
O1612      C1625   1.267       .  A
O1612     Co1620   2.024       .  S
O1613      C1626   1.306       .  A
O1613     Co1621   2.090       .  S
O1614      C1627   1.256       .  A
O1614     Co1622   1.997       .  S
O1615      C1628   1.268       .  A
O1615     Co1623   1.884       .  S
O1616      C1628   1.299       .  A
O1616     Co1621   2.089       .  S
O1617      C1627   1.264       .  A
O1617     Co1620   2.003       .  S
O1618      C1625   1.255       .  A
O1618     Co1623   1.983       .  S
O1619      C1626   1.267       .  A
O1619     Co1622   1.881       .  S
Co1620     O1624   2.091       .  S
Co1621     O1624   2.263       .  S
Co1622     O1624   1.908       .  S
Co1623     O1624   1.914       .  S
C1625      C1738   1.483       .  S
C1626      C1706   1.492       .  S
C1627      C1857   1.493       .  S
C1628      C1633   1.497       .  S
C1629      C1630   1.400       .  A
C1629      C1634   1.410       .  A
C1629      H1639   1.082       .  S
C1630      C1635   1.483       .  S
C1630      C1631   1.410       .  A
C1631      C1632   1.404       .  A
C1631      C1636   1.520       .  S
C1632      C1633   1.412       .  A
C1632      H1637   1.082       .  S
C1633      C1634   1.426       .  A
C1634      C1638   1.520       .  S
C1635      C1640   1.412       .  A
C1635      C1644   1.401       .  A
C1636      F1652   1.382       .  S
C1636      F1653   1.383       .  S
C1636      F1654   1.385       .  S
C1638      F1649   1.385       .  S
C1638      F1650   1.383       .  S
C1638      F1651   1.383       .  S
C1640      C1641   1.401       .  A
C1640      C1645   1.523       .  S
C1641      C1642   1.411       .  A
C1641      H1646   1.082       .  S
C1642      C1643   1.427       .  A
C1643      C1644   1.413       .  A
C1643      C1647   1.518       .  S
C1644      H1648   1.083       .  S
C1645      F1658   1.384       .  S
C1645      F1659   1.382       .  S
C1645      F1660   1.382       .  S
C1647      F1655   1.385       .  S
C1661      C1662   1.400       .  A
C1661      C1666   1.406       .  A
C1661      H1671   1.084       .  S
C1662      C1667   1.485       .  S
C1662      C1663   1.416       .  A
C1663      C1664   1.408       .  A
C1663      C1668   1.521       .  S
C1664      C1665   1.407       .  A
C1664      H1669   1.084       .  S
C1665      C1666   1.422       .  A
C1666      C1670   1.518       .  S
C1667      C1672   1.417       .  A
C1667      C1676   1.399       .  A
C1668      F1684   1.382       .  S
C1668      F1685   1.382       .  S
C1668      F1686   1.384       .  S
C1670      F1681   1.382       .  S
C1670      F1682   1.385       .  S
C1670      F1683   1.380       .  S
C1672      C1673   1.408       .  A
C1672      C1677   1.520       .  S
C1673      C1674   1.405       .  A
C1673      H1678   1.083       .  S
C1674      C1675   1.420       .  A
C1675      C1676   1.405       .  A
C1675      C1679   1.513       .  S
C1676      H1680   1.083       .  S
C1677      F1690   1.385       .  S
C1677      F1691   1.382       .  S
C1677      F1692   1.382       .  S
C1679      F1687   1.385       .  S
C1679      F1688   1.382       .  S
C1679      F1689   1.379       .  S
C1693      C1694   1.395       .  A
C1693      C1698   1.406       .  A
C1693      H1703   1.084       .  S
C1694      C1699   1.485       .  S
C1694      C1695   1.414       .  A
C1695      C1696   1.410       .  A
C1695      C1700   1.520       .  S
C1696      C1697   1.409       .  A
C1696      H1701   1.083       .  S
C1697      C1698   1.432       .  A
C1698      C1702   1.522       .  S
C1699      C1704   1.414       .  A
C1699      C1708   1.398       .  A
C1700      F1716   1.383       .  S
C1700      F1717   1.383       .  S
C1700      F1718   1.384       .  S
C1702      F1713   1.379       .  S
C1702      F1714   1.385       .  S
C1702      F1715   1.382       .  S
C1704      C1705   1.405       .  A
C1704      C1709   1.519       .  S
C1705      C1706   1.406       .  A
C1705      H1710   1.083       .  S
C1706      C1707   1.429       .  A
C1707      C1708   1.408       .  A
C1707      C1711   1.522       .  S
C1708      H1712   1.084       .  S
C1709      F1722   1.385       .  S
C1709      F1723   1.382       .  S
C1709      F1724   1.382       .  S
C1711      F1719   1.384       .  S
C1711      F1720   1.383       .  S
C1711      F1721   1.385       .  S
C1725      C1726   1.399       .  A
C1725      C1730   1.406       .  A
C1725      H1735   1.084       .  S
C1726      C1731   1.479       .  S
C1726      C1727   1.412       .  A
C1727      C1728   1.405       .  A
C1727      C1732   1.521       .  S
C1728      C1729   1.409       .  A
C1728      H1733   1.084       .  S
C1729      C1730   1.426       .  A
C1730      C1734   1.522       .  S
C1731      C1736   1.411       .  A
C1731      C1740   1.402       .  A
C1732      F1748   1.383       .  S
C1732      F1749   1.381       .  S
C1732      F1750   1.385       .  S
C1734      F1745   1.385       .  S
C1734      F1746   1.383       .  S
C1734      F1747   1.379       .  S
C1736      C1737   1.403       .  A
C1736      C1741   1.522       .  S
C1737      C1738   1.407       .  A
C1737      H1742   1.082       .  S
C1738      C1739   1.417       .  A
C1739      C1740   1.408       .  A
C1739      C1743   1.516       .  S
C1740      H1744   1.085       .  S
C1741      F1754   1.384       .  S
C1741      F1755   1.383       .  S
C1741      F1756   1.381       .  S
C1743      F1751   1.381       .  S
C1743      F1752   1.377       .  S
C1743      F1753   1.385       .  S
C1757      C1758   1.398       .  A
C1757      C1762   1.407       .  A
C1757      H1767   1.082       .  S
C1758      C1763   1.489       .  S
C1758      C1759   1.417       .  A
C1759      C1760   1.413       .  A
C1759      C1764   1.519       .  S
C1760      C1761   1.406       .  A
C1760      H1765   1.083       .  S
C1761      C1762   1.424       .  A
C1762      C1766   1.518       .  S
C1763      C1768   1.413       .  A
C1763      C1772   1.401       .  A
C1764      F1780   1.383       .  S
C1764      F1781   1.382       .  S
C1764      F1782   1.384       .  S
C1766      F1777   1.379   1_556  S
C1766      F1778   1.384       .  S
C1766      F1779   1.382       .  S
C1768      C1769   1.407       .  A
C1768      C1773   1.521       .  S
C1769      C1770   1.411       .  A
C1769      H1774   1.082       .  S
C1770      C1771   1.428       .  A
C1771      C1772   1.413       .  A
C1771      C1775   1.520       .  S
C1772      H1776   1.082       .  S
C1773      F1786   1.384       .  S
C1773      F1787   1.383       .  S
C1773      F1788   1.382       .  S
C1775      F1783   1.384       .  S
C1775      F1784   1.382       .  S
C1775      F1785   1.385       .  S
C1789      C1790   1.403       .  A
C1789      C1794   1.409       .  A
C1789      H1799   1.082       .  S
C1790      C1795   1.486       .  S
C1790      C1791   1.413       .  A
C1791      C1792   1.403       .  A
C1791      C1796   1.522       .  S
C1792      C1793   1.412       .  A
C1792      H1797   1.081       .  S
C1793      C1794   1.423       .  A
C1794      C1798   1.519       .  S
C1795      C1800   1.417       .  A
C1795      C1804   1.400       .  A
C1796      F1812   1.381       .  S
C1796      F1813   1.382       .  S
C1796      F1814   1.386       .  S
C1800      C1801   1.407       .  A
C1800      C1805   1.519       .  S
C1801      C1802   1.404       .  A
C1801      H1806   1.084       .  S
C1802      C1803   1.420       .  A
C1803      C1804   1.407       .  A
C1803      C1807   1.516       .  S
C1804      H1808   1.083       .  S
C1805      F1818   1.384       .  S
C1805      F1819   1.382       .  S
C1805      F1820   1.383       .  S
C1807      F1815   1.385       .  S
C1807      F1816   1.379       .  S
C1807      F1817   1.382       .  S
C1821      C1822   1.400       .  A
C1821      C1826   1.406       .  A
C1821      H1831   1.083       .  S
C1822      C1827   1.473       .  S
C1822      C1823   1.414       .  A
C1823      C1824   1.400       .  A
C1823      C1828   1.522       .  S
C1824      C1825   1.403       .  A
C1824      H1829   1.082       .  S
C1825      C1826   1.421       .  A
C1826      C1830   1.520       .  S
C1827      C1832   1.411       .  A
C1827      C1836   1.396       .  A
C1828      F1844   1.382       .  S
C1828      F1845   1.381       .  S
C1828      F1846   1.384       .  S
C1830      F1841   1.385       .  S
C1830      F1842   1.382       .  S
C1830      F1843   1.382       .  S
C1832      C1833   1.405       .  A
C1832      C1837   1.518       .  S
C1833      C1834   1.405       .  A
C1833      H1838   1.084       .  S
C1834      C1835   1.424       .  A
C1835      C1836   1.400       .  A
C1835      C1839   1.521       .  S
C1836      H1840   1.084       .  S
C1837      F1850   1.385       .  S
C1837      F1851   1.383       .  S
C1837      F1852   1.381       .  S
C1839      F1847   1.385       .  S
C1839      F1848   1.382       .  S
C1839      F1849   1.380       .  S
C1853      C1854   1.404       .  A
C1853      C1858   1.413       .  A
C1853      H1863   1.083       .  S
C1854      C1859   1.488       .  S
C1854      C1855   1.412       .  A
C1855      C1856   1.404       .  A
C1855      C1860   1.521       .  S
C1856      C1857   1.410       .  A
C1856      H1861   1.076       .  S
C1857      C1858   1.424       .  A
C1858      C1862   1.520       .  S
C1859      C1864   1.411       .  A
C1859      C1868   1.400       .  A
C1860      F1876   1.382       .  S
C1860      F1877   1.382       .  S
C1860      F1878   1.385       .  S
C1862      F1873   1.382       .  S
C1862      F1874   1.384       .  S
C1862      F1875   1.378       .  S
C1864      C1865   1.407       .  A
C1864      C1869   1.521       .  S
C1865      C1866   1.415       .  A
C1865      H1870   1.083       .  S
C1866      C1867   1.427       .  A
C1867      C1868   1.412       .  A
C1867      C1871   1.516       .  S
C1868      H1872   1.083       .  S
C1869      F1882   1.384       .  S
C1869      F1883   1.383       .  S
C1869      F1884   1.383       .  S
C1871      F1879   1.382       .  S
C1871      F1880   1.378       .  S
C1871      F1881   1.385       .  S
O1885      C1893   1.299       .  A
O1885     Co1905   2.117   1_554  S
O1886      C1894   1.278       .  A
O1886     Co2220   2.052   1_554  S
O1887      C1895   1.275       .  A
O1888      C1896   1.250       .  A
O1888     Co2222   1.968   1_655  S
O1889      C1895   1.274       .  A
O1890      C1896   1.264       .  A
O1891      C1894   1.260       .  A
O1892      C1893   1.263       .  A
O1892     Co1907   1.881       .  S
C1893      C2180   1.503       .  S
C1894      C1956   1.507       .  S
C1895      C2011   1.489       .  S
C1896      C2043   1.497       .  S
O1897      C1910   1.268       .  A
O1898      C1911   1.258       .  A
O1899      C1912   1.297       .  A
O1899     Co2221   2.115       .  S
O1900      C1913   1.273       .  A
O1901      C1913   1.260       .  A
O1901     Co1906   1.971       .  S
O1902      C1912   1.262       .  A
O1902     Co2219   1.893       .  S
O1903      C1910   1.280       .  A
O1903     Co1908   2.040   1_655  S
O1904      C1911   1.258       .  A
Co1905     O2216   1.894       .  S
Co1905     O1909   2.014   1_666  S
Co1906     O2200   2.033       .  S
Co1907     O2213   2.126   1_554  S
Co1907     O1909   2.002   1_665  S
Co1908     O2202   1.966   1_455  S
C1910      C2107   1.502       .  S
C1911      C2139   1.475       .  S
C1912      C2075   1.487       .  S
C1913      C1979   1.507       .  S
O1914      C1922   1.265       .  A
O1914     Co1934   1.976       .  S
O1915      C1923   1.255       .  A
O1915     Co1935   2.007       .  S
O1916      C1924   1.249       .  A
O1916     Co1936   1.978       .  S
O1917      C1925   1.270       .  A
O1917     Co1937   2.022       .  S
O1918      C1924   1.249       .  A
O1918     Co1935   1.980       .  S
O1919      C1925   1.263       .  A
O1919     Co1934   1.980       .  S
O1920      C1923   1.252       .  A
O1920     Co1937   1.980       .  S
O1921      C1922   1.269       .  A
O1921     Co1936   2.012       .  S
C1922      C2084   1.501       .  S
C1923      C1988   1.507       .  S
C1924      C2148   1.479       .  S
C1925      C2116   1.486       .  S
O1926      C1939   1.265       .  A
O1926     Co1934   2.016       .  S
O1927      C1940   1.306       .  A
O1927     Co1935   2.085       .  S
O1928      C1941   1.257       .  A
O1928     Co1936   2.000       .  S
O1929      C1942   1.271       .  A
O1929     Co1937   1.891       .  S
O1930      C1942   1.300       .  A
O1930     Co1935   2.086       .  S
O1931      C1941   1.265       .  A
O1931     Co1934   2.007       .  S
O1932      C1939   1.257       .  A
O1932     Co1937   1.993       .  S
O1933      C1940   1.269       .  A
O1933     Co1936   1.888       .  S
Co1934     O1938   2.089       .  S
Co1935     O1938   2.264       .  S
Co1936     O1938   1.915       .  S
Co1937     O1938   1.912       .  S
C1939      C2052   1.485       .  S
C1940      C2020   1.492       .  S
C1941      C2171   1.496       .  S
C1942      C1947   1.502       .  S
C1943      C1944   1.403       .  A
C1943      C1948   1.413       .  A
C1943      H1953   1.083       .  S
C1944      C1949   1.490       .  S
C1944      C1945   1.411       .  A
C1945      C1946   1.406       .  A
C1945      C1950   1.520       .  S
C1946      C1947   1.412       .  A
C1946      H1951   1.081       .  S
C1947      C1948   1.428       .  A
C1948      C1952   1.521       .  S
C1949      C1954   1.412       .  A
C1949      C1958   1.403       .  A
C1950      F1966   1.382       .  S
C1950      F1967   1.382       .  S
C1950      F1968   1.385       .  S
C1952      F1963   1.385       .  S
C1952      F1964   1.383       .  S
C1952      F1965   1.384       .  S
C1954      C1955   1.404       .  A
C1954      C1959   1.524       .  S
C1955      C1956   1.414       .  A
C1955      H1960   1.080       .  S
C1956      C1957   1.426       .  A
C1957      C1958   1.416       .  A
C1957      C1961   1.517       .  S
C1958      H1962   1.083       .  S
C1959      F1972   1.385       .  S
C1959      F1973   1.382       .  S
C1959      F1974   1.382       .  S
C1961      F1969   1.385       .  S
C1961      F2284   1.382   1_554  S
C1961      F2285   1.384       .  S
F1970      C2275   1.383       .  S
F1971      C2275   1.382       .  S
C1975      C1976   1.401       .  A
C1975      C1980   1.411       .  A
C1975      H1985   1.084       .  S
C1976      C1981   1.495       .  S
C1976      C1977   1.414       .  A
C1977      C1978   1.412       .  A
C1977      C1982   1.519       .  S
C1978      C1979   1.413       .  A
C1978      H1983   1.083       .  S
C1979      C1980   1.427       .  A
C1980      C1984   1.520       .  S
C1981      C1986   1.416       .  A
C1981      C1990   1.399       .  A
C1982      F1998   1.383       .  S
C1982      F1999   1.382       .  S
C1982      F2000   1.385       .  S
C1984      F1995   1.383       .  S
C1984      F1996   1.385       .  S
C1984      F1997   1.384       .  S
C1986      C1987   1.411       .  A
C1986      C1991   1.519       .  S
C1987      C1988   1.409       .  A
C1987      H1992   1.082       .  S
C1988      C1989   1.432       .  A
C1989      C1990   1.413       .  A
C1989      C1993   1.521       .  S
C1990      H1994   1.083       .  S
C1991      F2004   1.385       .  S
C1991      F2005   1.382       .  S
C1991      F2006   1.382       .  S
C1993      F2001   1.385       .  S
C1993      F2002   1.383       .  S
C1993      F2003   1.381       .  S
C2007      C2008   1.397       .  A
C2007      C2012   1.407       .  A
C2007      H2017   1.084       .  S
C2008      C2013   1.485       .  S
C2008      C2009   1.415       .  A
C2009      C2010   1.408       .  A
C2009      C2014   1.518       .  S
C2010      C2011   1.404       .  A
C2010      H2015   1.083       .  S
C2011      C2012   1.429       .  A
C2012      C2016   1.522       .  S
C2013      C2018   1.414       .  A
C2013      C2022   1.400       .  A
C2014      F2030   1.382       .  S
C2014      F2031   1.382       .  S
C2014      F2032   1.384       .  S
C2016      F2027   1.379   1_554  S
C2016      F2028   1.385       .  S
C2016      F2029   1.382   1_554  S
C2018      C2019   1.405       .  A
C2018      C2023   1.520       .  S
C2019      C2020   1.406       .  A
C2019      H2024   1.083       .  S
C2020      C2021   1.427       .  A
C2021      C2022   1.409       .  A
C2021      C2025   1.521       .  S
C2022      H2026   1.083       .  S
C2023      F2036   1.385       .  S
C2023      F2037   1.382       .  S
C2023      F2038   1.383       .  S
C2025      F2033   1.383       .  S
C2025      F2034   1.383       .  S
C2025      F2035   1.385       .  S
C2039      C2040   1.399       .  A
C2039      C2044   1.409       .  A
C2039      H2049   1.084       .  S
C2040      C2045   1.486       .  S
C2040      C2041   1.414       .  A
C2041      C2042   1.409       .  A
C2041      C2046   1.521       .  S
C2042      C2043   1.410       .  A
C2042      H2047   1.084       .  S
C2043      C2044   1.429       .  A
C2044      C2048   1.523       .  S
C2045      C2050   1.413       .  A
C2045      C2054   1.404       .  A
C2046      F2062   1.383       .  S
C2046      F2063   1.381       .  S
C2046      F2064   1.384       .  S
C2048      F2059   1.385       .  S
C2048      F2060   1.382       .  S
C2048      F2061   1.380       .  S
C2050      C2051   1.405       .  A
C2050      C2055   1.521       .  S
C2051      C2052   1.405       .  A
C2051      H2056   1.085       .  S
C2052      C2053   1.419       .  A
C2053      C2054   1.411       .  A
C2053      C2057   1.517       .  S
C2054      H2058   1.085       .  S
C2055      F2068   1.384       .  S
C2055      F2069   1.383       .  S
C2055      F2070   1.380       .  S
C2057      F2065   1.381       .  S
C2057      F2066   1.377       .  S
C2057      F2067   1.385       .  S
C2071      C2072   1.399       .  A
C2071      C2076   1.406       .  A
C2071      H2081   1.082       .  S
C2072      C2077   1.483       .  S
C2072      C2073   1.414       .  A
C2073      C2074   1.407       .  A
C2073      C2078   1.520       .  S
C2074      C2075   1.407       .  A
C2074      H2079   1.083       .  S
C2075      C2076   1.424       .  A
C2076      C2080   1.521       .  S
C2077      C2082   1.412       .  A
C2077      C2086   1.400       .  A
C2078      F2094   1.382       .  S
C2078      F2095   1.381       .  S
C2078      F2096   1.385       .  S
C2080      F2091   1.383       .  S
C2080      F2092   1.385       .  S
C2080      F2093   1.382       .  S
C2082      C2083   1.405       .  A
C2082      C2087   1.523       .  S
C2083      C2084   1.412       .  A
C2083      H2088   1.081       .  S
C2084      C2085   1.428       .  A
C2085      C2086   1.411       .  A
C2085      C2089   1.521       .  S
C2086      H2090   1.082       .  S
C2087      F2100   1.384       .  S
C2087      F2101   1.382       .  S
C2087      F2102   1.381       .  S
C2089      F2097   1.383       .  S
C2089      F2098   1.383       .  S
C2089      F2099   1.385       .  S
C2103      C2104   1.400       .  A
C2103      C2108   1.409       .  A
C2103      H2113   1.083       .  S
C2104      C2109   1.489       .  S
C2104      C2105   1.413       .  A
C2105      C2106   1.410       .  A
C2105      C2110   1.521       .  S
C2106      C2107   1.414       .  A
C2106      H2111   1.082       .  S
C2107      C2108   1.426       .  A
C2108      C2112   1.519       .  S
C2109      C2114   1.417       .  A
C2109      C2118   1.401       .  A
C2110      F2126   1.382       .  S
C2110      F2127   1.383       .  S
C2110      F2128   1.384       .  S
C2112      F2437   1.383       .  S
C2112      F2438   1.384       .  S
C2112      F2439   1.379       .  S
C2114      C2115   1.409       .  A
C2114      C2119   1.520       .  S
C2115      C2116   1.404       .  A
C2115      H2120   1.084       .  S
C2116      C2117   1.420       .  A
C2117      C2118   1.408       .  A
C2117      C2121   1.515       .  S
C2118      H2122   1.083       .  S
C2119      F2132   1.384       .  S
C2119      F2133   1.382       .  S
C2119      F2134   1.383       .  S
C2121      F2129   1.385       .  S
C2121      F2130   1.380       .  S
C2121      F2131   1.380       .  S
F2123      C2426   1.383       .  S
F2124      C2426   1.385       .  S
F2125      C2426   1.381       .  S
C2135      C2136   1.400       .  A
C2135      C2140   1.405       .  A
C2135      H2145   1.083       .  S
C2136      C2141   1.472       .  S
C2136      C2137   1.413       .  A
C2137      C2138   1.398       .  A
C2137      C2142   1.522       .  S
C2138      C2139   1.405       .  A
C2138      H2143   1.082       .  S
C2139      C2140   1.420       .  A
C2140      C2144   1.519       .  S
C2141      C2146   1.414       .  A
C2141      C2150   1.392       .  A
C2142      F2158   1.382       .  S
C2142      F2159   1.382       .  S
C2142      F2160   1.385       .  S
C2144      F2155   1.385       .  S
C2144      F2156   1.382       .  S
C2144      F2157   1.383       .  S
C2146      C2147   1.409       .  A
C2146      C2151   1.519       .  S
C2147      C2148   1.406       .  A
C2147      H2152   1.083       .  S
C2148      C2149   1.425       .  A
C2149      C2150   1.398       .  A
C2149      C2153   1.520       .  S
C2150      H2154   1.083       .  S
C2151      F2164   1.384       .  S
C2151      F2165   1.383       .  S
C2151      F2166   1.382       .  S
C2153      F2161   1.385       .  S
C2153      F2162   1.382       .  S
C2153      F2163   1.378       .  S
C2167      C2168   1.403       .  A
C2167      C2172   1.412       .  A
C2167      H2177   1.082       .  S
C2168      C2173   1.487       .  S
C2168      C2169   1.411       .  A
C2169      C2170   1.406       .  A
C2169      C2174   1.522       .  S
C2170      C2171   1.412       .  A
C2170      H2175   1.075       .  S
C2171      C2172   1.425       .  A
C2172      C2176   1.520       .  S
C2173      C2178   1.411       .  A
C2173      C2182   1.401       .  A
C2174      F2190   1.382       .  S
C2174      F2191   1.382       .  S
C2174      F2192   1.384       .  S
C2176      F2187   1.382       .  S
C2176      F2188   1.385       .  S
C2176      F2189   1.377       .  S
C2178      C2179   1.405       .  A
C2178      C2183   1.522       .  S
C2179      C2180   1.414       .  A
C2179      H2184   1.083       .  S
C2180      C2181   1.426       .  A
C2181      C2182   1.412       .  A
C2181      C2185   1.518       .  S
C2182      H2186   1.083       .  S
C2183      F2196   1.385       .  S
C2183      F2197   1.382       .  S
C2183      F2198   1.382       .  S
C2185      F2193   1.382       .  S
C2185      F2194   1.378       .  S
C2185      F2195   1.384       .  S
O2199      C2207   1.300       .  A
O2199     Co2219   2.122       .  S
O2200      C2208   1.273       .  A
O2201      C2209   1.273       .  A
O2202      C2210   1.251       .  A
O2203      C2209   1.276       .  A
O2204      C2210   1.262       .  A
O2205      C2208   1.263       .  A
O2206      C2207   1.264       .  A
O2206     Co2221   1.887       .  S
C2207      C2494   1.507       .  S
C2208      C2270   1.499       .  S
C2209      C2325   1.498       .  S
C2210      C2357   1.486       .  S
O2211      C2224   1.265       .  A
O2212      C2225   1.259       .  A
O2213      C2226   1.298       .  A
O2214      C2227   1.273       .  A
O2215      C2227   1.256       .  A
O2215     Co2220   1.961       .  S
O2216      C2226   1.261       .  A
O2217      C2224   1.278       .  A
O2217     Co2222   2.039   1_656  S
O2218      C2225   1.256       .  A
Co2219     O2223   2.023   1_665  S
Co2221     O2223   2.005   1_665  S
C2224      C2421   1.495       .  S
C2225      C2453   1.475       .  S
C2226      C2389   1.492       .  S
C2227      C2293   1.487       .  S
O2228      C2236   1.268       .  A
O2228     Co2248   1.987       .  S
O2229      C2237   1.258       .  A
O2229     Co2249   2.010       .  S
O2230      C2238   1.247       .  A
O2230     Co2250   1.969       .  S
O2231      C2239   1.268       .  A
O2231     Co2251   2.020       .  S
O2232      C2238   1.249       .  A
O2232     Co2249   1.985       .  S
O2233      C2239   1.264       .  A
O2233     Co2248   1.981       .  S
O2234      C2237   1.248       .  A
O2234     Co2251   1.962       .  S
O2235      C2236   1.270       .  A
O2235     Co2250   2.014       .  S
C2236      C2398   1.502       .  S
C2237      C2302   1.486       .  S
C2238      C2462   1.477       .  S
C2239      C2430   1.483       .  S
O2240      C2253   1.267       .  A
O2240     Co2248   2.024       .  S
O2241      C2254   1.306       .  A
O2241     Co2249   2.090       .  S
O2242      C2255   1.256       .  A
O2242     Co2250   1.997       .  S
O2243      C2256   1.268       .  A
O2243     Co2251   1.884       .  S
O2244      C2256   1.299       .  A
O2244     Co2249   2.089       .  S
O2245      C2255   1.264       .  A
O2245     Co2248   2.003       .  S
O2246      C2253   1.255       .  A
O2246     Co2251   1.983       .  S
O2247      C2254   1.267       .  A
O2247     Co2250   1.880       .  S
Co2248     O2252   2.091       .  S
Co2249     O2252   2.263       .  S
Co2250     O2252   1.908       .  S
Co2251     O2252   1.914       .  S
C2253      C2366   1.483       .  S
C2254      C2334   1.492       .  S
C2255      C2485   1.493       .  S
C2256      C2261   1.497       .  S
C2257      C2258   1.400       .  A
C2257      C2262   1.410       .  A
C2257      H2267   1.082       .  S
C2258      C2263   1.483       .  S
C2258      C2259   1.410       .  A
C2259      C2260   1.404       .  A
C2259      C2264   1.520       .  S
C2260      C2261   1.412       .  A
C2260      H2265   1.082       .  S
C2261      C2262   1.426       .  A
C2262      C2266   1.520       .  S
C2263      C2268   1.412       .  A
C2263      C2272   1.401       .  A
C2264      F2280   1.382       .  S
C2264      F2281   1.383       .  S
C2264      F2282   1.385       .  S
C2266      F2277   1.385       .  S
C2266      F2278   1.383       .  S
C2266      F2279   1.383       .  S
C2268      C2269   1.401       .  A
C2268      C2273   1.523       .  S
C2269      C2270   1.411       .  A
C2269      H2274   1.082       .  S
C2270      C2271   1.427       .  A
C2271      C2272   1.413       .  A
C2271      C2275   1.518       .  S
C2272      H2276   1.083       .  S
C2273      F2286   1.384       .  S
C2273      F2287   1.382       .  S
C2273      F2288   1.382       .  S
C2275      F2283   1.385       .  S
C2289      C2290   1.400       .  A
C2289      C2294   1.406       .  A
C2289      H2299   1.084       .  S
C2290      C2295   1.485       .  S
C2290      C2291   1.416       .  A
C2291      C2292   1.408       .  A
C2291      C2296   1.521       .  S
C2292      C2293   1.407       .  A
C2292      H2297   1.084       .  S
C2293      C2294   1.422       .  A
C2294      C2298   1.518       .  S
C2295      C2300   1.417       .  A
C2295      C2304   1.399       .  A
C2296      F2312   1.382       .  S
C2296      F2313   1.382       .  S
C2296      F2314   1.384       .  S
C2298      F2309   1.382       .  S
C2298      F2310   1.385       .  S
C2298      F2311   1.380       .  S
C2300      C2301   1.408       .  A
C2300      C2305   1.520       .  S
C2301      C2302   1.405       .  A
C2301      H2306   1.083       .  S
C2302      C2303   1.420       .  A
C2303      C2304   1.405       .  A
C2303      C2307   1.513       .  S
C2304      H2308   1.083       .  S
C2305      F2318   1.385       .  S
C2305      F2319   1.382       .  S
C2305      F2320   1.382       .  S
C2307      F2315   1.385       .  S
C2307      F2316   1.382       .  S
C2307      F2317   1.379       .  S
C2321      C2322   1.395       .  A
C2321      C2326   1.406       .  A
C2321      H2331   1.084       .  S
C2322      C2327   1.485       .  S
C2322      C2323   1.414       .  A
C2323      C2324   1.410       .  A
C2323      C2328   1.520       .  S
C2324      C2325   1.409       .  A
C2324      H2329   1.083       .  S
C2325      C2326   1.432       .  A
C2326      C2330   1.522       .  S
C2327      C2332   1.414       .  A
C2327      C2336   1.398       .  A
C2328      F2344   1.383       .  S
C2328      F2345   1.383       .  S
C2328      F2346   1.384       .  S
C2330      F2341   1.379       .  S
C2330      F2342   1.385       .  S
C2330      F2343   1.382       .  S
C2332      C2333   1.405       .  A
C2332      C2337   1.519       .  S
C2333      C2334   1.406       .  A
C2333      H2338   1.083       .  S
C2334      C2335   1.429       .  A
C2335      C2336   1.408       .  A
C2335      C2339   1.522       .  S
C2336      H2340   1.084       .  S
C2337      F2350   1.385       .  S
C2337      F2351   1.382       .  S
C2337      F2352   1.382       .  S
C2339      F2347   1.384       .  S
C2339      F2348   1.383       .  S
C2339      F2349   1.385       .  S
C2353      C2354   1.399       .  A
C2353      C2358   1.406       .  A
C2353      H2363   1.084       .  S
C2354      C2359   1.479       .  S
C2354      C2355   1.412       .  A
C2355      C2356   1.405       .  A
C2355      C2360   1.521       .  S
C2356      C2357   1.409       .  A
C2356      H2361   1.084       .  S
C2357      C2358   1.426       .  A
C2358      C2362   1.522       .  S
C2359      C2364   1.411       .  A
C2359      C2368   1.402       .  A
C2360      F2376   1.383       .  S
C2360      F2377   1.381       .  S
C2360      F2378   1.385       .  S
C2362      F2373   1.385       .  S
C2362      F2374   1.383       .  S
C2362      F2375   1.379       .  S
C2364      C2365   1.403       .  A
C2364      C2369   1.522       .  S
C2365      C2366   1.407       .  A
C2365      H2370   1.082       .  S
C2366      C2367   1.417       .  A
C2367      C2368   1.408       .  A
C2367      C2371   1.516       .  S
C2368      H2372   1.085       .  S
C2369      F2382   1.384       .  S
C2369      F2383   1.383       .  S
C2369      F2384   1.381       .  S
C2371      F2379   1.381       .  S
C2371      F2380   1.377       .  S
C2371      F2381   1.385       .  S
C2385      C2386   1.398       .  A
C2385      C2390   1.407       .  A
C2385      H2395   1.082       .  S
C2386      C2391   1.489       .  S
C2386      C2387   1.417       .  A
C2387      C2388   1.413       .  A
C2387      C2392   1.519       .  S
C2388      C2389   1.406       .  A
C2388      H2393   1.083       .  S
C2389      C2390   1.424       .  A
C2390      C2394   1.518       .  S
C2391      C2396   1.413       .  A
C2391      C2400   1.401       .  A
C2392      F2408   1.383       .  S
C2392      F2409   1.382       .  S
C2392      F2410   1.384       .  S
C2394      F2405   1.379   1_556  S
C2394      F2406   1.384       .  S
C2394      F2407   1.382       .  S
C2396      C2397   1.407       .  A
C2396      C2401   1.521       .  S
C2397      C2398   1.411       .  A
C2397      H2402   1.082       .  S
C2398      C2399   1.428       .  A
C2399      C2400   1.413       .  A
C2399      C2403   1.520       .  S
C2400      H2404   1.082       .  S
C2401      F2414   1.384       .  S
C2401      F2415   1.383       .  S
C2401      F2416   1.382       .  S
C2403      F2411   1.384       .  S
C2403      F2412   1.382       .  S
C2403      F2413   1.385       .  S
C2417      C2418   1.403       .  A
C2417      C2422   1.409       .  A
C2417      H2427   1.082       .  S
C2418      C2423   1.486       .  S
C2418      C2419   1.413       .  A
C2419      C2420   1.403       .  A
C2419      C2424   1.522       .  S
C2420      C2421   1.412       .  A
C2420      H2425   1.081       .  S
C2421      C2422   1.423       .  A
C2422      C2426   1.519       .  S
C2423      C2428   1.417       .  A
C2423      C2432   1.400       .  A
C2424      F2440   1.381       .  S
C2424      F2441   1.382       .  S
C2424      F2442   1.386       .  S
C2428      C2429   1.407       .  A
C2428      C2433   1.519       .  S
C2429      C2430   1.404       .  A
C2429      H2434   1.084       .  S
C2430      C2431   1.420       .  A
C2431      C2432   1.407       .  A
C2431      C2435   1.516       .  S
C2432      H2436   1.083       .  S
C2433      F2446   1.384       .  S
C2433      F2447   1.382       .  S
C2433      F2448   1.383       .  S
C2435      F2443   1.385       .  S
C2435      F2444   1.379       .  S
C2435      F2445   1.382       .  S
C2449      C2450   1.400       .  A
C2449      C2454   1.406       .  A
C2449      H2459   1.083       .  S
C2450      C2455   1.473       .  S
C2450      C2451   1.414       .  A
C2451      C2452   1.400       .  A
C2451      C2456   1.522       .  S
C2452      C2453   1.403       .  A
C2452      H2457   1.082       .  S
C2453      C2454   1.421       .  A
C2454      C2458   1.520       .  S
C2455      C2460   1.411       .  A
C2455      C2464   1.396       .  A
C2456      F2472   1.382       .  S
C2456      F2473   1.381       .  S
C2456      F2474   1.384       .  S
C2458      F2469   1.385       .  S
C2458      F2470   1.382       .  S
C2458      F2471   1.382       .  S
C2460      C2461   1.405       .  A
C2460      C2465   1.518       .  S
C2461      C2462   1.405       .  A
C2461      H2466   1.084       .  S
C2462      C2463   1.424       .  A
C2463      C2464   1.400       .  A
C2463      C2467   1.521       .  S
C2464      H2468   1.084       .  S
C2465      F2478   1.385       .  S
C2465      F2479   1.383       .  S
C2465      F2480   1.381       .  S
C2467      F2475   1.385       .  S
C2467      F2476   1.382       .  S
C2467      F2477   1.380       .  S
C2481      C2482   1.404       .  A
C2481      C2486   1.413       .  A
C2481      H2491   1.083       .  S
C2482      C2487   1.488       .  S
C2482      C2483   1.412       .  A
C2483      C2484   1.404       .  A
C2483      C2488   1.521       .  S
C2484      C2485   1.410       .  A
C2484      H2489   1.076       .  S
C2485      C2486   1.424       .  A
C2486      C2490   1.520       .  S
C2487      C2492   1.411       .  A
C2487      C2496   1.400       .  A
C2488      F2504   1.382       .  S
C2488      F2505   1.382       .  S
C2488      F2506   1.385       .  S
C2490      F2501   1.382       .  S
C2490      F2502   1.384       .  S
C2490      F2503   1.378       .  S
C2492      C2493   1.407       .  A
C2492      C2497   1.521       .  S
C2493      C2494   1.415       .  A
C2493      H2498   1.083       .  S
C2494      C2495   1.427       .  A
C2495      C2496   1.412       .  A
C2495      C2499   1.516       .  S
C2496      H2500   1.083       .  S
C2497      F2510   1.384       .  S
C2497      F2511   1.383       .  S
C2497      F2512   1.383       .  S
C2499      F2507   1.382       .  S
C2499      F2508   1.378       .  S
C2499      F2509   1.385       .  S
