geometry optimzed in LAMMPS
_audit_creation_date              2020-11-30 
_audit_creation_method            'lammps2cif' 
_symmetry_space_group_name_H-M    'P1' 
_symmetry_Int_Tables_number       1 
_symmetry_cell_setting            triclinic 
loop_ 
_symmetry_equiv_pos_as_xyz 
  x,y,z 
_cell_length_a                    35.67954687 
_cell_length_b                    29.62795087562723 
_cell_length_c                    39.47128304906701 
_cell_angle_alpha                 89.99780135392366 
_cell_angle_beta                  89.9999699232338 
_cell_angle_gamma                 90.01168007776933 
loop_ 
_atom_site_label 
_atom_site_type_symbol 
_atom_site_fract_x 
_atom_site_fract_y 
_atom_site_fract_z 
_atom_site_charge 
O1          O  0.43933293  0.41063166  0.26845544    -0.74100
O2          O  0.39582635  0.45205961  0.29724946    -0.53000
C3          C  0.40531494  0.42086713  0.27633953     0.79600
O4          O  0.06575582  0.41057402  0.06519434    -0.58700
O5          O  0.10923164  0.45193101  0.03628747    -0.51800
C6          C  0.09975933  0.42085098  0.05731910     0.71600
O7          O  0.43926097  0.40974026  0.06444840    -0.73300
O8          O  0.39579905  0.45153381  0.03588671    -0.53900
C9          C  0.40525421  0.42019736  0.05669592     0.77600
O10         O  0.06586890  0.41191078  0.26744260    -0.58400
O11         O  0.10935063  0.45278253  0.29675132    -0.51600
C12         C  0.09988151  0.42199890  0.27546852     0.74200
Zr13       Zr  0.50258856  0.43657716  0.28214403     2.54700
O14         O  0.50317733  0.35455289  0.27900286    -0.79000
O15         O  0.00243800  0.44385225  0.22073230    -0.92400
Zr16       Zr  0.50252813  0.43487347  0.05011869     2.64700
O17         O  0.50186530  0.35267902  0.04972206    -0.97400
O18         O  0.00300539  0.43821328  0.11183867    -0.79400
O19         O  0.46675176  0.43490742  0.33274859    -0.82800
O20         O  0.03831519  0.43484291  0.33287311    -2.17500
O21         O  0.06584557  0.09460067  0.26848524    -0.66200
O22         O  0.10933440  0.05300803  0.29717578    -0.50700
C23         C  0.09985340  0.08416548  0.27622544     0.72600
O24         O  0.43927919  0.09490205  0.06473459    -0.59100
O25         O  0.39579368  0.05316230  0.03614926    -0.51100
C26         C  0.40526580  0.08450289  0.05694341     0.74400
O27         O  0.06576989  0.09313470  0.06631834    -0.70500
O28         O  0.10923532  0.05240291  0.03688848    -0.49200
C29         C  0.09977210  0.08309652  0.05824010     0.75800
O30         O  0.43929761  0.09585816  0.26945340    -0.65800
O31         O  0.39582203  0.05354562  0.29756683    -0.53000
C32         C  0.40528627  0.08510528  0.27695409     0.74200
Zr33       Zr  0.00249640  0.07036997  0.28347345     2.77500
O34         O  0.00193045  0.15257273  0.28330076    -0.96600
O35         O  0.00205071  0.06707699  0.22185069    -0.77400
Zr36       Zr  0.00251270  0.06851938  0.05139029     2.70100
O37         O  0.00358174  0.15049343  0.05515811    -0.78600
O38         O  0.00104816  0.06053339  0.11278326    -0.97700
Zr39       Zr  0.43100596  0.00263701  0.00006696     2.21500
Zr40       Zr  0.07411065  0.50268107  0.33343082     2.11100
O41         O  0.03827324  0.07037316  0.00081520    -2.46400
O42         O  0.46660008  0.07044164  0.00071695    -0.78400
O43         O  0.03928135  0.50354159  0.28190846    -0.70600
O44         O  0.46588380  0.00186199  0.05157322    -2.31600
O45         O  0.46594134  0.00357159  0.28190584    -2.27800
O46         O  0.03922696  0.50184695  0.05167882    -0.72400
H47         H  0.05424376  0.40845309  0.99937723     0.79600
H48         H  0.44941901  0.00168322  0.07099703     0.80700
H49         H  0.05430007  0.09672636  0.33423751     0.82900
H50         H  0.44951886  0.00390145  0.26245410     0.80500
H51         H  0.48271975  0.45900934  0.11785199     0.43600
H52         H  0.02308729  0.04155462  0.11820130     0.42500
H53         H  0.50508876  0.16090283  0.03116505     0.42200
H54         H  0.02168923  0.16142249  0.29961034     0.40200
H55         H  0.02041210  0.04321258  0.21613136     0.43300
H56         H  0.47734120  0.45528911  0.21488685     0.38100
H57         H  0.49732332  0.34458134  0.30235315     0.44200
H58         H  0.02233678  0.34403415  0.03449972     0.40600
H59         H  0.01210603  0.16112976  0.26086010     0.45500
H60         H  0.50222767  0.41190181  0.21234261     0.44200
H61         H  0.51052612  0.34388296  0.07262405     0.44400
H62         H  0.00768506  0.09085909  0.12145571     0.44700
O63         O  0.31567519  0.34438788  0.10175973    -0.74100
O64         O  0.35917497  0.30293207  0.13054352    -0.53000
C65         C  0.34969011  0.33411649  0.10962136     0.79600
O66         O  0.18922804  0.34447737  0.23185816    -0.58700
O67         O  0.14573482  0.30321516  0.20289639    -0.51800
C68         C  0.15521942  0.33423838  0.22397405     0.71600
O69         O  0.31574885  0.34521565  0.23117326    -0.73300
O70         O  0.35920349  0.30347991  0.20256329    -0.53900
C71         C  0.34975358  0.33475951  0.22342453     0.77600
O72         O  0.18917393  0.34317487  0.10066205    -0.58400
O73         O  0.14571328  0.30235673  0.13004568    -0.51600
C74         C  0.15516824  0.33309499  0.10872376     0.74200
Zr75       Zr  0.25243894  0.31849619  0.11553017     2.54700
O76         O  0.25199705  0.40054226  0.11276569    -0.79000
O77         O  0.25262787  0.31171968  0.05400381    -0.92400
Zr78       Zr  0.25250056  0.32015339  0.21674218     2.64700
O79         O  0.25320305  0.40234895  0.21655893    -0.97400
O80         O  0.25207497  0.31715332  0.27840817    -0.79400
O81         O  0.28830415  0.32020067  0.16611431    -0.82800
O82         O  0.21672417  0.32038320  0.16615051    -2.17500
O83         O  0.18915439  0.16046873  0.10190144    -0.66200
O84         O  0.14567548  0.20197062  0.13067697    -0.50700
C85         C  0.15514877  0.17081711  0.10971377     0.72600
O86         O  0.31569720  0.16020447  0.23136996    -0.59100
O87         O  0.35919983  0.20209083  0.20291881    -0.51100
C88         C  0.34971691  0.17067768  0.22364708     0.74400
O89         O  0.18923537  0.16160314  0.23266939    -0.70500
O90         O  0.14575994  0.20266036  0.20350592    -0.49200
C91         C  0.15523038  0.17178231  0.22470245     0.75800
O92         O  0.31569443  0.15954547  0.10257655    -0.65800
O93         O  0.35917095  0.20148351  0.13100810    -0.53000
C94         C  0.34970382  0.17011127  0.11023337     0.74200
Zr95       Zr  0.25248516  0.18480376  0.11687426     2.77500
O96         O  0.25291437  0.10259940  0.11667874    -0.96600
O97         O  0.25290711  0.18856354  0.05527112    -0.77400
Zr98       Zr  0.25248744  0.18650833  0.21800329     2.70100
O99         O  0.25158409  0.10455516  0.22210012    -0.78600
O100        O  0.25337475  0.19496204  0.27937119    -0.97700
Zr101      Zr  0.32399296  0.25250381  0.16675834     2.21500
Zr102      Zr  0.18092806  0.25254365  0.16678595     2.11100
O103        O  0.21672843  0.18470228  0.16743186    -2.46400
O104        O  0.28837554  0.18471511  0.16744025    -0.78400
O105        O  0.21575000  0.25162218  0.11527051    -0.70600
O106        O  0.28910723  0.25330347  0.21826377    -2.31600
O107        O  0.28904543  0.25165590  0.11528273    -2.27800
O108        O  0.21576062  0.25333173  0.21829314    -0.72400
H109        H  0.20072336  0.34666316  0.16595067     0.79600
H110        H  0.30556248  0.25347791  0.23769427     0.80700
H111        H  0.20072077  0.15842297  0.16762583     0.82900
H112        H  0.30545783  0.25132232  0.09582467     0.80500
H113        H  0.27346406  0.29746621  0.28446566     0.43600
H114        H  0.23133320  0.21406911  0.28452648     0.42500
H115        H  0.25130339  0.09411007  0.19827481     0.42200
H116        H  0.23256709  0.09376318  0.13239212     0.40200
H117        H  0.23335441  0.21103885  0.04960210     0.43300
H118        H  0.27788010  0.30016580  0.04827116     0.38100
H119        H  0.26017012  0.41028882  0.13559572     0.44200
H120        H  0.23240868  0.41116214  0.20132583     0.40600
H121        H  0.24353145  0.09410733  0.09394453     0.45500
H122        H  0.25266255  0.34327812  0.04574533     0.44200
H123        H  0.24455167  0.41104026  0.23948654     0.44400
H124        H  0.24655905  0.16473290  0.28812230     0.44700
C125        C  0.13055431  0.10888242  0.07404001    -0.15300
C126        C  0.12437741  0.14491264  0.09400976    -0.30400
H127        H  0.15909234  0.09835919  0.06853846     0.13800
H128        H  0.09583999  0.15546872  0.09947011     0.14300
C129        C  0.13062479  0.10996794  0.26044973    -0.15300
C130        C  0.12444981  0.14598848  0.24047798    -0.30400
H131        H  0.15915875  0.09936920  0.26588077     0.13800
H132        H  0.09591488  0.15656358  0.23501895     0.14300
C133        C  0.13053340  0.39496747  0.07302990    -0.15300
C134        C  0.12437227  0.35887036  0.09293960    -0.30400
H135        H  0.15906684  0.40558826  0.06760953     0.13800
H136        H  0.09583817  0.34827110  0.09839275     0.14300
C137        C  0.37443306  0.11018650  0.07274950    -0.15300
C138        C  0.38053248  0.14456225  0.09430186    -0.30400
H139        H  0.34591352  0.10055451  0.06631513     0.13800
H140        H  0.40905176  0.15420193  0.10072331     0.14300
C141        C  0.38059264  0.36038450  0.23931238    -0.15300
C142        C  0.37449228  0.39511255  0.26054939    -0.30400
H143        H  0.40911604  0.35056695  0.23307173     0.13800
H144        H  0.34596759  0.40491654  0.26680388     0.14300
C145        C  0.38054922  0.14501199  0.23946540    -0.15300
C146        C  0.37445327  0.11063346  0.26101439    -0.30400
H147        H  0.40906830  0.15467328  0.23305264     0.13800
H148        H  0.34593491  0.10094725  0.26740015     0.14300
C149        C  0.13065642  0.39618638  0.25967072    -0.15300
C150        C  0.12446419  0.36011122  0.23973774    -0.30400
H151        H  0.15919976  0.40676712  0.26510355     0.13800
H152        H  0.09592185  0.34951738  0.23432689     0.14300
C153        C  0.37441348  0.39451967  0.07252672    -0.15300
C154        C  0.38051273  0.35983780  0.09380545    -0.30400
H155        H  0.34589131  0.40429416  0.06624030     0.13800
H156        H  0.40903603  0.35008032  0.10010446     0.14300
O157        O  0.43934653  0.41068618  0.60180202    -0.74100
O158        O  0.39584685  0.45209168  0.63063398    -0.53000
C159        C  0.40533392  0.42090549  0.60971540     0.79600
O160        O  0.06585821  0.41094981  0.39867267    -0.58700
O161        O  0.10932468  0.45213356  0.36961758    -0.51800
C162        C  0.09986045  0.42117988  0.39075912     0.71600
O163        O  0.43929216  0.40982087  0.39769380    -0.73300
O164        O  0.39582155  0.45159986  0.36913554    -0.53900
C165        C  0.40528622  0.42028001  0.38995859     0.77600
O166        O  0.06589706  0.41193276  0.60068105    -0.58400
O167        O  0.10936773  0.45271577  0.63007364    -0.51600
C168        C  0.09990329  0.42196246  0.60876747     0.74200
Zr169      Zr  0.50258234  0.43668210  0.61545895     2.54700
O170        O  0.50327817  0.35464630  0.61252589    -0.79000
O171        O  0.00243655  0.44375326  0.55393040    -0.92400
Zr172      Zr  0.50253568  0.43499387  0.38339395     2.64700
O173        O  0.50175480  0.35279739  0.38361724    -0.97400
O174        O  0.00295987  0.43815401  0.44516375    -0.79400
O175        O  0.46670879  0.43493209  0.66603734    -0.82800
O176        O  0.03832742  0.43474096  0.66606287    -2.17500
O177        O  0.06585408  0.09458072  0.60176637    -0.66200
O178        O  0.10933176  0.05308337  0.63055009    -0.50700
C179        C  0.09986205  0.08420685  0.60955867     0.72600
O180        O  0.43935511  0.09497363  0.39809621    -0.59100
O181        O  0.39585564  0.05323026  0.36952605    -0.51100
C182        C  0.40533856  0.08457068  0.39031819     0.74400
O183        O  0.06578150  0.09328469  0.39957486    -0.70500
O184        O  0.10922697  0.05256972  0.37010240    -0.49200
C185        C  0.09978187  0.08324978  0.39147878     0.75800
O186        O  0.43921510  0.09560830  0.60263676    -0.65800
O187        O  0.39573149  0.05344388  0.63086858    -0.53000
C188        C  0.40520207  0.08491965  0.61018151     0.74200
Zr189      Zr  0.00251194  0.07032684  0.61681173     2.77500
O190        O  0.00202169  0.15253219  0.61654178    -0.96600
O191        O  0.00210467  0.06684385  0.55519749    -0.77400
Zr192      Zr  0.00253186  0.06864419  0.38460216     2.70100
O193        O  0.00365623  0.15064115  0.38811172    -0.78600
O194        O  0.00123816  0.06037631  0.44597942    -0.97700
Zr195      Zr  0.43104337  0.00271170  0.33341411     2.21500
Zr196      Zr  0.07410468  0.50260047  0.66672782     2.11100
O197        O  0.03828275  0.07045454  0.33402502    -2.46400
O198        O  0.46666069  0.07051314  0.33409809    -0.78400
O199        O  0.03926573  0.50358544  0.61521182    -0.70600
O200        O  0.46593084  0.00191066  0.38491922    -2.31600
O201        O  0.46594370  0.00351308  0.61522405    -2.27800
O202        O  0.03930497  0.50203633  0.38495693    -0.72400
H203        H  0.05431863  0.40856463  0.33270612     0.79600
H204        H  0.44946756  0.00173708  0.40434443     0.80700
H205        H  0.05431549  0.09667862  0.66756053     0.82900
H206        H  0.44953434  0.00383246  0.59576328     0.80500
H207        H  0.48136347  0.45786985  0.45104595     0.43600
H208        H  0.02381764  0.04232961  0.45138046     0.42500
H209        H  0.50947490  0.16093051  0.36537266     0.42200
H210        H  0.02197735  0.16139818  0.63264988     0.40200
H211        H  0.02064617  0.04316330  0.54952198     0.43300
H212        H  0.47742802  0.45567169  0.54821686     0.38100
H213        H  0.49446641  0.34477825  0.63513173     0.44200
H214        H  0.02276553  0.34425135  0.36798754     0.40600
H215        H  0.01194513  0.16101872  0.59399359     0.45500
H216        H  0.50212775  0.41213190  0.54562980     0.44200
H217        H  0.51048975  0.34428020  0.40655614     0.44400
H218        H  0.00696607  0.09093237  0.45472300     0.44700
O219        O  0.31578610  0.34457174  0.43518880    -0.74100
O220        O  0.35929912  0.30312547  0.46396528    -0.53000
C221        C  0.34980411  0.33431373  0.44304931     0.79600
O222        O  0.18924720  0.34440564  0.56525963    -0.58700
O223        O  0.14577304  0.30316904  0.53625754    -0.51800
C224        C  0.15524440  0.33415576  0.55736478     0.71600
O225        O  0.31578550  0.34531149  0.56451911    -0.73300
O226        O  0.35924950  0.30353033  0.53595683    -0.53900
C227        C  0.34978994  0.33482627  0.55679717     0.77600
O228        O  0.18927952  0.34361825  0.43422088    -0.58400
O229        O  0.14582084  0.30257535  0.46343192    -0.51600
C230        C  0.15527414  0.33347256  0.44223468     0.74200
Zr231      Zr  0.25252899  0.31868457  0.44889057     2.54700
O232        O  0.25217800  0.40071070  0.44581098    -0.79000
O233        O  0.25255965  0.31157540  0.38738113    -0.92400
Zr234      Zr  0.25254962  0.32022413  0.55011542     2.64700
O235        O  0.25311449  0.40243150  0.54999037    -0.97400
O236        O  0.25225572  0.31736913  0.61178990    -0.79400
O237        O  0.28836939  0.32032082  0.49949237    -0.82800
O238        O  0.21680583  0.32049144  0.49951687    -2.17500
O239        O  0.18923867  0.16063459  0.43514696    -0.66200
O240        O  0.14576272  0.20198431  0.46405274    -0.50700
C241        C  0.15523044  0.17089462  0.44303152     0.72600
O242        O  0.31572225  0.16016723  0.56460273    -0.59100
O243        O  0.35924981  0.20210855  0.53623280    -0.51100
C244        C  0.34974461  0.17064261  0.55691345     0.74400
O245        O  0.18931576  0.16170483  0.56603292    -0.70500
O246        O  0.14584811  0.20276739  0.53686378    -0.49200
C247        C  0.15530753  0.17188888  0.55806855     0.75800
O248        O  0.31579899  0.15964424  0.43595601    -0.65800
O249        O  0.35928231  0.20165399  0.46431629    -0.53000
C250        C  0.34981030  0.17022898  0.44358871     0.74200
Zr251      Zr  0.25258270  0.18504856  0.45008735     2.77500
O252        O  0.25314861  0.10285849  0.44937610    -0.96600
O253        O  0.25317487  0.18943694  0.38850320    -0.77400
Zr254      Zr  0.25256310  0.18657419  0.55125851     2.70100
O255        O  0.25166187  0.10461240  0.55527045    -0.78600
O256        O  0.25384830  0.19525935  0.61259905    -0.97700
Zr257      Zr  0.32407857  0.25262222  0.50008811     2.21500
Zr258      Zr  0.18101556  0.25263292  0.50010745     2.11100
O259        O  0.21684139  0.18481194  0.50066740    -2.46400
O260        O  0.28843369  0.18486465  0.50068195    -0.78400
O261        O  0.21581025  0.25183536  0.44857035    -0.70600
O262        O  0.28916482  0.25337401  0.55156986    -2.31600
O263        O  0.28917377  0.25187591  0.44858421    -2.27800
O264        O  0.21582694  0.25338100  0.55162649    -0.72400
H265        H  0.20080192  0.34676841  0.49935280     0.79600
H266        H  0.30561885  0.25352134  0.57100092     0.80700
H267        H  0.20084774  0.15851946  0.50085382     0.82900
H268        H  0.30559866  0.25157539  0.42913377     0.80500
H269        H  0.27275072  0.29632484  0.61779882     0.43600
H270        H  0.23153738  0.21384358  0.61787986     0.42500
H271        H  0.25314768  0.09419644  0.53147277     0.42200
H272        H  0.23258369  0.09379649  0.46478298     0.40200
H273        H  0.23334338  0.21158247  0.38289586     0.43300
H274        H  0.27801394  0.30074692  0.38158063     0.38100
H275        H  0.25796527  0.41061708  0.46919053     0.44200
H276        H  0.23235617  0.41121758  0.53470871     0.40600
H277        H  0.24413068  0.09460846  0.42647157     0.45500
H278        H  0.25190195  0.34307708  0.37902326     0.44200
H279        H  0.24437127  0.41107827  0.57289938     0.44400
H280        H  0.24763067  0.16490085  0.62145703     0.44700
C281        C  0.13058846  0.10901648  0.40728763    -0.15300
C282        C  0.12444211  0.14498072  0.42733793    -0.30400
H283        H  0.15912205  0.09853197  0.40172700     0.13800
H284        H  0.09590880  0.15549167  0.43286416     0.14300
C285        C  0.13065001  0.11004005  0.59380128    -0.15300
C286        C  0.12450548  0.14608924  0.57384048    -0.30400
H287        H  0.15918009  0.09944017  0.59924487     0.13800
H288        H  0.09597473  0.15667170  0.56837172     0.14300
C289        C  0.13063778  0.39536994  0.40654454    -0.15300
C290        C  0.12447699  0.35933524  0.42652349    -0.30400
H291        H  0.15917230  0.40593251  0.40106547     0.13800
H292        H  0.09594172  0.34877811  0.43201671     0.14300
C293        C  0.37451596  0.11025234  0.40614040    -0.15300
C294        C  0.38063023  0.14464703  0.42767353    -0.30400
H295        H  0.34599251  0.10061217  0.39972711     0.13800
H296        H  0.40915335  0.15429813  0.43407141     0.14300
C297        C  0.38062174  0.36043909  0.57268932    -0.15300
C298        C  0.37451410  0.39514277  0.59394229    -0.30400
H299        H  0.40914522  0.35063588  0.56643564     0.13800
H300        H  0.34598953  0.40492604  0.60021495     0.14300
C301        C  0.38053909  0.14490126  0.57272178    -0.15300
C302        C  0.37439246  0.11046103  0.59421256    -0.30400
H303        H  0.40907109  0.15456929  0.56636397     0.13800
H304        H  0.34586167  0.10078005  0.60055929     0.14300
C305        C  0.13067527  0.39611218  0.59301844    -0.15300
C306        C  0.12448318  0.35999424  0.57313484    -0.30400
H307        H  0.15921701  0.40670854  0.59844087     0.13800
H308        H  0.09594314  0.34937606  0.56773908     0.14300
C309        C  0.37447061  0.39462095  0.40584122    -0.15300
C310        C  0.38060676  0.36004635  0.42721463    -0.30400
H311        H  0.34594034  0.40432060  0.39952117     0.13800
H312        H  0.40913825  0.35036217  0.43354873     0.14300
O313        O  0.43931454  0.41062550  0.93519044    -0.74100
O314        O  0.39581437  0.45198595  0.96404988    -0.53000
C315        C  0.40529868  0.42082674  0.94310559     0.79600
O316        O  0.06585739  0.41050939  0.73168457    -0.58700
O317        O  0.10932317  0.45197798  0.70285398    -0.51800
C318        C  0.09985855  0.42086004  0.72386031     0.71600
O319        O  0.43929008  0.40970006  0.73103718    -0.73300
O320        O  0.39582844  0.45160893  0.70257037    -0.53900
C321        C  0.40528370  0.42023298  0.72335393     0.77600
O322        O  0.06582231  0.41188566  0.93409511    -0.58400
O323        O  0.10930057  0.45265737  0.96348442    -0.51600
C324        C  0.09983451  0.42192092  0.94215972     0.74200
Zr325      Zr  0.50256310  0.43654926  0.94891107     2.54700
O326        O  0.50294398  0.35450810  0.94600808    -0.79000
O327        O  0.00241898  0.44363960  0.88743401    -0.92400
Zr328      Zr  0.50252582  0.43483611  0.71665062     2.64700
O329        O  0.50204853  0.35263733  0.71612664    -0.97400
O330        O  0.00310610  0.43806109  0.77833030    -0.79400
O331        O  0.46672207  0.43488291  0.99950276    -0.82800
O332        O  0.03824940  0.43473841  0.99956947    -2.17500
O333        O  0.06583981  0.09448666  0.93516451    -0.66200
O334        O  0.10930774  0.05299657  0.96396781    -0.50700
C335        C  0.09984618  0.08409476  0.94295161     0.72600
O336        O  0.43928337  0.09491871  0.73135477    -0.59100
O337        O  0.39578137  0.05314852  0.70281489    -0.51100
C338        C  0.40526953  0.08451812  0.72358434     0.74400
O339        O  0.06581274  0.09338021  0.73272945    -0.70500
O340        O  0.10927278  0.05243021  0.70346733    -0.49200
C341        C  0.09981610  0.08325038  0.72472072     0.75800
O342        O  0.43924960  0.09561017  0.93597839    -0.65800
O343        O  0.39576676  0.05349988  0.96425524    -0.53000
C344        C  0.40523784  0.08495500  0.94355422     0.74200
Zr345      Zr  0.00249803  0.07028313  0.95025383     2.77500
O346        O  0.00198714  0.15248549  0.95006521    -0.96600
O347        O  0.00188633  0.06661407  0.88864801    -0.77400
Zr348      Zr  0.00257458  0.06854129  0.71794521     2.70100
O349        O  0.00374540  0.15047504  0.72207220    -0.78600
O350        O  0.00135004  0.05987873  0.77928477    -0.97700
Zr351      Zr  0.43099209  0.00261656  0.66671119     2.21500
Zr352      Zr  0.07405101  0.50256663  0.00015773     2.11100
O353        O  0.03830283  0.07040314  0.66735791    -2.46400
O354        O  0.46655714  0.07043927  0.66740862    -0.78400
O355        O  0.03922776  0.50348701  0.94864742    -0.70600
O356        O  0.46588672  0.00181790  0.71821507    -2.31600
O357        O  0.46592960  0.00347665  0.94857235    -2.27800
O358        O  0.03927893  0.50174232  0.71823865    -0.72400
H359        H  0.05432917  0.40846229  0.66585481     0.79600
H360        H  0.44942008  0.00163256  0.73763775     0.80700
H361        H  0.05429115  0.09664477  0.00102605     0.82900
H362        H  0.44950404  0.00380092  0.92912331     0.80500
H363        H  0.48254759  0.45865386  0.78440113     0.43600
H364        H  0.02392723  0.04178189  0.78459632     0.42500
H365        H  0.50047107  0.16086423  0.69777511     0.42200
H366        H  0.02193783  0.16132971  0.96618568     0.40200
H367        H  0.02095102  0.04355932  0.88293630     0.43300
H368        H  0.47712253  0.45469158  0.88162991     0.38100
H369        H  0.49730054  0.34467862  0.96943485     0.44200
H370        H  0.02269467  0.34387400  0.70127253     0.40600
H371        H  0.01190440  0.16101809  0.92752520     0.45500
H372        H  0.50276097  0.41194048  0.87909647     0.44200
H373        H  0.51093535  0.34380108  0.73894965     0.44400
H374        H  0.00710949  0.09037655  0.78812547     0.44700
O375        O  0.31573524  0.34448099  0.76851864    -0.74100
O376        O  0.35923794  0.30300114  0.79727451    -0.53000
C377        C  0.34975097  0.33420413  0.77636923     0.79600
O378        O  0.18919229  0.34435093  0.89858627    -0.58700
O379        O  0.14572479  0.30311142  0.86957704    -0.51800
C380        C  0.15518945  0.33411577  0.89068314     0.71600
O381        O  0.31572984  0.34519280  0.89786894    -0.73300
O382        O  0.35920420  0.30351987  0.86922970    -0.53900
C383        C  0.34974090  0.33478358  0.89009952     0.77600
O384        O  0.18924814  0.34332917  0.76738141    -0.58400
O385        O  0.14577181  0.30236420  0.79662576    -0.51600
C386        C  0.15523896  0.33316833  0.77535816     0.74200
Zr387      Zr  0.25248573  0.31861479  0.78225991     2.54700
O388        O  0.25203400  0.40065896  0.77947129    -0.79000
O389        O  0.25258165  0.31211329  0.72071677    -0.92400
Zr390      Zr  0.25247751  0.32004225  0.88349301     2.64700
O391        O  0.25312583  0.40224299  0.88358942    -0.97400
O392        O  0.25193876  0.31680367  0.94515872    -0.79400
O393        O  0.28830343  0.32021531  0.83287189    -0.82800
O394        O  0.21673860  0.32039665  0.83287341    -2.17500
O395        O  0.18924257  0.16065317  0.76836129    -0.66200
O396        O  0.14573986  0.20217996  0.79709175    -0.50700
C397        C  0.15522762  0.17105236  0.77611186     0.72600
O398        O  0.31570974  0.16012691  0.89799111    -0.59100
O399        O  0.35920981  0.20207597  0.86959417    -0.51100
C400        C  0.34972595  0.17063593  0.89030268     0.74400
O401        O  0.18929966  0.16151997  0.89934933    -0.70500
O402        O  0.14584255  0.20244408  0.87005228    -0.49200
C403        C  0.15529830  0.17162821  0.89131575     0.75800
O404        O  0.31581434  0.15960522  0.76928046    -0.65800
O405        O  0.35929143  0.20162369  0.79763430    -0.53000
C406        C  0.34982291  0.17020812  0.77689500     0.74200
Zr407      Zr  0.25258260  0.18489691  0.78342758     2.77500
O408        O  0.25299142  0.10269411  0.78306328    -0.96600
O409        O  0.25336575  0.18853827  0.72182216    -0.77400
Zr410      Zr  0.25252871  0.18636587  0.88453769     2.70100
O411        O  0.25155625  0.10436865  0.88809679    -0.78600
O412        O  0.25384094  0.19420974  0.94594121    -0.97700
Zr413      Zr  0.32402566  0.25252586  0.83342105     2.21500
Zr414      Zr  0.18095979  0.25253083  0.83339677     2.11100
O415        O  0.21677713  0.18469304  0.83395940    -2.46400
O416        O  0.28846049  0.18469250  0.83399976    -0.78400
O417        O  0.21583467  0.25171453  0.78189409    -0.70600
O418        O  0.28910547  0.25320265  0.88491177    -2.31600
O419        O  0.28910920  0.25178327  0.78191596    -2.27800
O420        O  0.21577368  0.25318037  0.88492331    -0.72400
H421        H  0.20073113  0.34667129  0.83269624     0.79600
H422        H  0.30555667  0.25334498  0.90434536     0.80700
H423        H  0.20076412  0.15841769  0.83411840     0.82900
H424        H  0.30553057  0.25149726  0.76246288     0.80500
H425        H  0.27292719  0.29648797  0.95118864     0.43600
H426        H  0.23189560  0.21336476  0.95131993     0.42500
H427        H  0.25151749  0.09419239  0.86420525     0.42200
H428        H  0.23276375  0.09381255  0.79888666     0.40200
H429        H  0.23461419  0.21194627  0.71607553     0.43300
H430        H  0.27779196  0.30047467  0.71493195     0.38100
H431        H  0.25931719  0.41042626  0.80254016     0.44200
H432        H  0.23225046  0.41113386  0.86847246     0.40600
H433        H  0.24343025  0.09428332  0.76037265     0.45500
H434        H  0.25270265  0.34370921  0.71253864     0.44200
H435        H  0.24458608  0.41078883  0.90658232     0.44400
H436        H  0.24699726  0.16392376  0.95456226     0.44700
C437        C  0.13060877  0.10904607  0.74050700    -0.15300
C438        C  0.12445372  0.14523501  0.76032183    -0.30400
H439        H  0.15913955  0.09835288  0.73516347     0.13800
H440        H  0.09592292  0.15595192  0.76563218     0.14300
C441        C  0.13064142  0.10987147  0.92714998    -0.15300
C442        C  0.12449860  0.14583587  0.90710008    -0.30400
H443        H  0.15917083  0.09930234  0.93263152     0.13800
H444        H  0.09596808  0.15637762  0.90158891     0.14300
C445        C  0.13063038  0.39502607  0.73962348    -0.15300
C446        C  0.12445826  0.35891225  0.75951946    -0.30400
H447        H  0.15916390  0.40570382  0.73426690     0.13800
H448        H  0.09592288  0.34825575  0.76490281     0.14300
C449        C  0.37447252  0.11025001  0.73939986    -0.15300
C450        C  0.38062481  0.14463643  0.76094085    -0.30400
H451        H  0.34594054  0.10063922  0.73299389     0.13800
H452        H  0.40915639  0.15426240  0.76733002     0.14300
C453        C  0.38057612  0.36043668  0.90597841    -0.15300
C454        C  0.37447530  0.39506797  0.92730808    -0.30400
H455        H  0.40910069  0.35070360  0.89966642     0.13800
H456        H  0.34595025  0.40478487  0.93363511     0.14300
C457        C  0.38054288  0.14495933  0.90613321    -0.15300
C458        C  0.37442030  0.11049165  0.92760025    -0.30400
H459        H  0.40906848  0.15467640  0.89979330     0.13800
H460        H  0.34589542  0.10076465  0.93392813     0.14300
C461        C  0.13061041  0.39609658  0.92636033    -0.15300
C462        C  0.12442510  0.35998696  0.90645235    -0.30400
H463        H  0.15915307  0.40669220  0.93177974     0.13800
H464        H  0.09588402  0.34937426  0.90105856     0.14300
C465        C  0.37445223  0.39459644  0.73924517    -0.15300
C466        C  0.38056580  0.35992979  0.76054117    -0.30400
H467        H  0.34592596  0.40438274  0.73298617     0.13800
H468        H  0.40909252  0.35016485  0.76682152     0.14300
O469        O  0.43932216  0.91073364  0.26851958    -0.74100
O470        O  0.39581947  0.95215009  0.29732240    -0.53000
C471        C  0.40530360  0.92095270  0.27640878     0.79600
O472        O  0.06578294  0.91046073  0.06512386    -0.58700
O473        O  0.10926182  0.95189808  0.03628087    -0.51800
C474        C  0.09978846  0.92078514  0.05728479     0.71600
O475        O  0.43926488  0.90978197  0.06433688    -0.73300
O476        O  0.39579353  0.95163198  0.03584031    -0.53900
C477        C  0.40525551  0.92025894  0.05661879     0.77600
O478        O  0.06588636  0.91190039  0.26733728    -0.58400
O479        O  0.10934741  0.95277098  0.29666725    -0.51600
C480        C  0.09989399  0.92198955  0.27537725     0.74200
Zr481      Zr  0.50256713  0.93674774  0.28217742     2.54700
O482        O  0.50305339  0.85473978  0.27891290    -0.79000
O483        O  0.00249312  0.94360235  0.22059629    -0.92400
Zr484      Zr  0.50251040  0.93502272  0.05006734     2.64700
O485        O  0.50200514  0.85282307  0.05000419    -0.97400
O486        O  0.00307894  0.93786460  0.11176616    -0.79400
O487        O  0.46675338  0.93503018  0.33279212    -0.82800
O488        O  0.03830295  0.93475509  0.33275007    -2.17500
O489        O  0.06585379  0.59462726  0.26844175    -0.66200
O490        O  0.10933380  0.55304418  0.29715842    -0.50700
C491        C  0.09985959  0.58419449  0.27619498     0.72600
O492        O  0.43936251  0.59461751  0.06499940    -0.59100
O493        O  0.39585101  0.55290066  0.03642774    -0.51100
C494        C  0.40534588  0.58419253  0.05725709     0.74400
O495        O  0.06576242  0.59331279  0.06622157    -0.70500
O496        O  0.10921403  0.55238846  0.03691775    -0.49200
C497        C  0.09976381  0.58315828  0.05820798     0.75800
O498        O  0.43926918  0.59546062  0.26914921    -0.65800
O499        O  0.39579353  0.55343711  0.29750777    -0.53000
C500        C  0.40525690  0.58483508  0.27675395     0.74200
Zr501      Zr  0.00251461  0.57034989  0.28343478     2.77500
O502        O  0.00199841  0.65254506  0.28319014    -0.96600
O503        O  0.00199808  0.56671929  0.22182023    -0.77400
Zr504      Zr  0.00248403  0.56865816  0.05135858     2.70100
O505        O  0.00334832  0.65063937  0.05508901    -0.78600
O506        O  0.00120316  0.56054084  0.11274567    -0.97700
Zr507      Zr  0.43100727  0.50255680  0.00014585     2.21500
Zr508      Zr  0.07408032  0.00260844  0.33337323     2.11100
O509        O  0.03827237  0.57043329  0.00079583    -2.46400
O510        O  0.46661171  0.57034489  0.00081476    -0.78400
O511        O  0.03924732  0.00355292  0.28185005    -0.70600
O512        O  0.46592881  0.50172370  0.05163049    -2.31600
O513        O  0.46596460  0.50341225  0.28184758    -2.27800
O514        O  0.03923885  0.00169449  0.05167807    -0.72400
H515        H  0.05428319  0.90838990  0.99931202     0.79600
H516        H  0.44948183  0.50153400  0.07106662     0.80700
H517        H  0.05434490  0.59677706  0.33415630     0.82900
H518        H  0.44955227  0.50372830  0.26238933     0.80500
H519        H  0.48208678  0.95864560  0.11775497     0.43600
H520        H  0.02360052  0.54216541  0.11813849     0.42500
H521        H  0.49807682  0.66066766  0.03133592     0.42200
H522        H  0.02223425  0.66141754  0.29900654     0.40200
H523        H  0.02151247  0.54422096  0.21609812     0.43300
H524        H  0.47695059  0.95477375  0.21492627     0.38100
H525        H  0.49529698  0.84473489  0.30179852     0.44200
H526        H  0.02267777  0.84385637  0.03477739     0.40600
H527        H  0.01152407  0.66103078  0.26050293     0.45500
H528        H  0.50303281  0.91242538  0.21230702     0.44200
H529        H  0.51055909  0.84421587  0.07298012     0.44400
H530        H  0.00726777  0.59102763  0.12144141     0.44700
O531        O  0.31572347  0.84429765  0.10163809    -0.74100
O532        O  0.35924342  0.80294747  0.13048073    -0.53000
C533        C  0.34974391  0.83408537  0.10952378     0.79600
O534        O  0.18926978  0.84453016  0.23174730    -0.58700
O535        O  0.14579885  0.80323215  0.20278947    -0.51800
C536        C  0.15526762  0.83427383  0.22385902     0.71600
O537        O  0.31575093  0.84530069  0.23114354    -0.73300
O538        O  0.35921990  0.80354011  0.20257492    -0.53900
C539        C  0.34976050  0.83483938  0.22342280     0.77600
O540        O  0.18920299  0.84308804  0.10060636    -0.58400
O541        O  0.14573858  0.80224280  0.12996027    -0.51600
C542        C  0.15519481  0.83299765  0.10865532     0.74200
Zr543      Zr  0.25249011  0.81840873  0.11543062     2.54700
O544        O  0.25204922  0.90044490  0.11257547    -0.79000
O545        O  0.25259909  0.81159897  0.05390532    -0.92400
Zr546      Zr  0.25253667  0.82016669  0.21667075     2.64700
O547        O  0.25330097  0.90236743  0.21668986    -0.97400
O548        O  0.25201736  0.81697622  0.27833271    -0.79400
O549        O  0.28833411  0.82021383  0.16603018    -0.82800
O550        O  0.21678547  0.82036402  0.16605784    -2.17500
O551        O  0.18925060  0.66036658  0.10187212    -0.66200
O552        O  0.14578141  0.70201944  0.13053935    -0.50700
C553        C  0.15524644  0.67081969  0.10961637     0.72600
O554        O  0.31569427  0.66012805  0.23129825    -0.59100
O555        O  0.35920166  0.70194452  0.20279421    -0.51100
C556        C  0.34971069  0.67052640  0.22351919     0.74400
O557        O  0.18928006  0.66166856  0.23270369    -0.70500
O558        O  0.14582669  0.70264614  0.20345053    -0.49200
C559        C  0.15528014  0.67181619  0.22469439     0.75800
O560        O  0.31584430  0.65931506  0.10283762    -0.65800
O561        O  0.35931769  0.70153928  0.13103290    -0.53000
C562        C  0.34985320  0.66997970  0.11041963     0.74200
Zr563      Zr  0.25258649  0.68469448  0.11685096     2.77500
O564        O  0.25305259  0.60248540  0.11675930    -0.96600
O565        O  0.25310295  0.68812798  0.05523505    -0.77400
Zr566      Zr  0.25252503  0.68649969  0.21793554     2.70100
O567        O  0.25158071  0.60450980  0.22152219    -0.78600
O568        O  0.25368984  0.69448521  0.27932955    -0.97700
Zr569      Zr  0.32405570  0.75254236  0.16671376     2.21500
Zr570      Zr  0.18100030  0.75251582  0.16671340     2.11100
O571        O  0.21676778  0.68465281  0.16737475    -2.46400
O572        O  0.28845312  0.68474987  0.16741287    -0.78400
O573        O  0.21584229  0.75151162  0.11520300    -0.70600
O574        O  0.28913980  0.75331697  0.21819911    -2.31600
O575        O  0.28912315  0.75157904  0.11521668    -2.27800
O576        O  0.21580508  0.75333417  0.21823280    -0.72400
H577        H  0.20078524  0.84664450  0.16584444     0.79600
H578        H  0.30559295  0.75348842  0.23763068     0.80700
H579        H  0.20075073  0.65838120  0.16758280     0.82900
H580        H  0.30554716  0.75122310  0.09576658     0.80500
H581        H  0.27313330  0.79685757  0.28437234     0.43600
H582        H  0.23189422  0.71393330  0.28461503     0.42500
H583        H  0.25355402  0.59429830  0.19770573     0.42200
H584        H  0.23333001  0.59369446  0.13312267     0.40200
H585        H  0.23314789  0.71003327  0.04945500     0.43300
H586        H  0.27759153  0.79923121  0.04820085     0.38100
H587        H  0.26004586  0.91023339  0.13544646     0.44200
H588        H  0.23243390  0.91127493  0.20156934     0.40600
H589        H  0.24279928  0.59390205  0.09435410     0.45500
H590        H  0.25334815  0.84314156  0.04564005     0.44200
H591        H  0.24478055  0.91096623  0.23967758     0.44400
H592        H  0.24654415  0.66431189  0.28797292     0.44700
C593        C  0.13057640  0.60886626  0.07402055    -0.15300
C594        C  0.12445071  0.64500963  0.09387609    -0.30400
H595        H  0.15909816  0.59817224  0.06863540     0.13800
H596        H  0.09592947  0.65573364  0.09921950     0.14300
C597        C  0.13064073  0.60999454  0.26042490    -0.15300
C598        C  0.12448448  0.64603584  0.24046724    -0.30400
H599        H  0.15917050  0.59937800  0.26585322     0.13800
H600        H  0.09595397  0.65662525  0.23500458     0.14300
C601        C  0.13056266  0.89491433  0.07300558    -0.15300
C602        C  0.12440049  0.85878316  0.09287955    -0.30400
H603        H  0.15909581  0.90556470  0.06761625     0.13800
H604        H  0.09586631  0.84815899  0.09830603     0.14300
C605        C  0.37454118  0.60982627  0.07313955    -0.15300
C606        C  0.38067226  0.64433448  0.09456657    -0.30400
H607        H  0.34601375  0.60012130  0.06679812     0.13800
H608        H  0.40919879  0.65406665  0.10088440     0.14300
C609        C  0.38059114  0.86048377  0.23932978    -0.15300
C610        C  0.37448362  0.89517350  0.26061187    -0.30400
H611        H  0.40911842  0.85070810  0.23306758     0.13800
H612        H  0.34595568  0.90493470  0.26689030     0.14300
C613        C  0.38053060  0.64475650  0.23926460    -0.15300
C614        C  0.37442543  0.61035730  0.26079675    -0.30400
H615        H  0.40905186  0.65438099  0.23283140     0.13800
H616        H  0.34590460  0.60071719  0.26721407     0.14300
C617        C  0.13068042  0.89617908  0.25959087    -0.15300
C618        C  0.12450151  0.86014463  0.23961077    -0.30400
H619        H  0.15922088  0.90672854  0.26507061     0.13800
H620        H  0.09596252  0.84957770  0.23415744     0.14300
C621        C  0.37442872  0.89456038  0.07246159    -0.15300
C622        C  0.38055051  0.85982787  0.09369421    -0.30400
H623        H  0.34589973  0.90436411  0.06622768     0.13800
H624        H  0.40908081  0.85005195  0.09995163     0.14300
O625        O  0.43934769  0.91064406  0.60185879    -0.74100
O626        O  0.39580493  0.95208383  0.63059366    -0.53000
C627        C  0.40532240  0.92086994  0.60971118     0.79600
O628        O  0.06581907  0.91076345  0.39853183    -0.58700
O629        O  0.10928130  0.95195133  0.36947122    -0.51800
C630        C  0.09981888  0.92098043  0.39059831     0.71600
O631        O  0.43930957  0.91000768  0.39783353    -0.73300
O632        O  0.39585139  0.95174366  0.36922459    -0.53900
C633        C  0.40530661  0.92045913  0.39007889     0.77600
O634        O  0.06585042  0.91198417  0.60056612    -0.58400
O635        O  0.10931820  0.95274995  0.62997736    -0.51600
C636        C  0.09985960  0.92204106  0.60863551     0.74200
Zr637      Zr  0.50257925  0.93669047  0.61548593     2.54700
O638        O  0.50302630  0.85467998  0.61213663    -0.79000
O639        O  0.00238457  0.94338477  0.55394909    -0.92400
Zr640      Zr  0.50255266  0.93506861  0.38342479     2.64700
O641        O  0.50190615  0.85287778  0.38302299    -0.97400
O642        O  0.00297266  0.93780102  0.44502579    -0.79400
O643        O  0.46674715  0.93495785  0.66608835    -0.82800
O644        O  0.03830534  0.93470863  0.66608143    -2.17500
O645        O  0.06577684  0.59476052  0.60180030    -0.66200
O646        O  0.10925466  0.55310884  0.63046497    -0.50700
C647        C  0.09978444  0.58430274  0.60952847     0.72600
O648        O  0.43934785  0.59488660  0.39804860    -0.59100
O649        O  0.39585560  0.55310854  0.36949324    -0.51100
C650        C  0.40533278  0.58447174  0.39027207     0.74400
O651        O  0.06579433  0.59355063  0.39946608    -0.70500
O652        O  0.10924450  0.55265481  0.37014259    -0.49200
C653        C  0.09979287  0.58343095  0.39143453     0.75800
O654        O  0.43927538  0.59564457  0.60263599    -0.65800
O655        O  0.39579879  0.55370299  0.63106078    -0.53000
C656        C  0.40526637  0.58509451  0.61029796     0.74200
Zr657      Zr  0.00248068  0.57037958  0.61685191     2.77500
O658        O  0.00194705  0.65257873  0.61683428    -0.96600
O659        O  0.00193438  0.56697976  0.55523505    -0.77400
Zr660      Zr  0.00255334  0.56884677  0.38456856     2.70100
O661        O  0.00363122  0.65082341  0.38847033    -0.78600
O662        O  0.00112056  0.56053962  0.44593129    -0.97700
Zr663      Zr  0.43102814  0.50259080  0.33334710     2.21500
Zr664      Zr  0.07409761  0.00255876  0.66671260     2.11100
O665        O  0.03830824  0.57052291  0.33398387    -2.46400
O666        O  0.46662699  0.57038492  0.33402276    -0.78400
O667        O  0.03923879  0.00349807  0.61521119    -0.70600
O668        O  0.46590808  0.50182670  0.38484731    -2.31600
O669        O  0.46592452  0.50350853  0.61524478    -2.27800
O670        O  0.03926800  0.00182976  0.38488701    -0.72400
H671        H  0.05430944  0.90848036  0.33256519     0.79600
H672        H  0.44944126  0.50166233  0.40426965     0.80700
H673        H  0.05430859  0.59669307  0.66761357     0.82900
H674        H  0.44949674  0.50385425  0.59579683     0.80500
H675        H  0.48302559  0.95966029  0.45113677     0.43600
H676        H  0.02370569  0.54252567  0.45136980     0.42500
H677        H  0.49880816  0.66086359  0.36470129     0.42200
H678        H  0.02212455  0.66137784  0.63273489     0.40200
H679        H  0.02122140  0.54421742  0.54947242     0.43300
H680        H  0.47712450  0.95494960  0.54822154     0.38100
H681        H  0.49467854  0.84464196  0.63484396     0.44200
H682        H  0.02314380  0.84406724  0.36819852     0.40600
H683        H  0.01155316  0.66118230  0.59419975     0.45500
H684        H  0.50296033  0.91238232  0.54560903     0.44200
H685        H  0.51045499  0.84408647  0.40596089     0.44400
H686        H  0.00679565  0.59110177  0.45469093     0.44700
O687        O  0.31576246  0.84461403  0.43513410    -0.74100
O688        O  0.35927237  0.80316917  0.46391591    -0.53000
C689        C  0.34977801  0.83438140  0.44302225     0.79600
O690        O  0.18929670  0.84458469  0.56507951    -0.58700
O691        O  0.14580988  0.80325806  0.53616735    -0.51800
C692        C  0.15528615  0.83431243  0.55721173     0.71600
O693        O  0.31586068  0.84528853  0.56438709    -0.73300
O694        O  0.35933090  0.80344308  0.53589156    -0.53900
C695        C  0.34986848  0.83476802  0.55671007     0.77600
O696        O  0.18924324  0.84338608  0.43402586    -0.58400
O697        O  0.14579334  0.80256627  0.46341943    -0.51600
C698        C  0.15523939  0.83332975  0.44211397     0.74200
Zr699      Zr  0.25252607  0.81861315  0.44877918     2.54700
O700        O  0.25211721  0.90063790  0.44581484    -0.79000
O701        O  0.25266651  0.81165059  0.38725723    -0.92400
Zr702      Zr  0.25260341  0.82024892  0.55001022     2.64700
O703        O  0.25336876  0.90244804  0.55000137    -0.97400
O704        O  0.25232785  0.81733844  0.61167913    -0.79400
O705        O  0.28838718  0.82028894  0.49936793    -0.82800
O706        O  0.21683948  0.82052030  0.49941878    -2.17500
O707        O  0.18924700  0.66069860  0.43509747    -0.66200
O708        O  0.14579150  0.70222858  0.46387977    -0.50700
C709        C  0.15524676  0.67110282  0.44288896     0.72600
O710        O  0.31573956  0.66035751  0.56477197    -0.59100
O711        O  0.35924002  0.70200532  0.53611761    -0.51100
C712        C  0.34975410  0.67070558  0.55694944     0.74400
O713        O  0.18929612  0.66174878  0.56602845    -0.70500
O714        O  0.14585842  0.70277977  0.53679505    -0.49200
C715        C  0.15529434  0.67192916  0.55803125     0.75800
O716        O  0.31578047  0.65961694  0.43585494    -0.65800
O717        O  0.35927114  0.70172144  0.46412841    -0.53000
C718        C  0.34979507  0.67026297  0.44342880     0.74200
Zr719      Zr  0.25258203  0.68496121  0.45010893     2.77500
O720        O  0.25308159  0.60276710  0.44982516    -0.96600
O721        O  0.25295479  0.68891366  0.38851320    -0.77400
Zr722      Zr  0.25256405  0.68655465  0.55123172     2.70100
O723        O  0.25182316  0.60453215  0.55451408    -0.78600
O724        O  0.25360857  0.69450377  0.61263672    -0.97700
Zr725      Zr  0.32409464  0.75259593  0.50000637     2.21500
Zr726      Zr  0.18104314  0.75267281  0.50007299     2.11100
O727        O  0.21680911  0.68482031  0.50066692    -2.46400
O728        O  0.28846309  0.68484201  0.50067496    -0.78400
O729        O  0.21583071  0.75175932  0.44854257    -0.70600
O730        O  0.28917927  0.75336743  0.55149100    -2.31600
O731        O  0.28916435  0.75179303  0.44851218    -2.27800
O732        O  0.21587410  0.75341747  0.55158453    -0.72400
H733        H  0.20084752  0.84680798  0.49923240     0.79600
H734        H  0.30563885  0.75352825  0.57091800     0.80700
H735        H  0.20078786  0.65855245  0.50085431     0.82900
H736        H  0.30557592  0.75147173  0.42905276     0.80500
H737        H  0.27267457  0.79607585  0.61766701     0.43600
H738        H  0.23187026  0.71406363  0.61788444     0.42500
H739        H  0.25501879  0.59448256  0.53076560     0.42200
H740        H  0.23294119  0.59389108  0.46574186     0.40200
H741        H  0.23310260  0.71102264  0.38288101     0.43300
H742        H  0.27807976  0.80065070  0.38149099     0.38100
H743        H  0.25893527  0.91048017  0.46898200     0.44200
H744        H  0.23286583  0.91132892  0.53447156     0.40600
H745        H  0.24341775  0.59430046  0.42718249     0.45500
H746        H  0.25218925  0.84317771  0.37894280     0.44200
H747        H  0.24429716  0.91107606  0.57280978     0.44400
H748        H  0.24633666  0.66436696  0.62126463     0.44700
C749        C  0.13059266  0.60918512  0.40723803    -0.15300
C750        C  0.12445274  0.64530420  0.42712467    -0.30400
H751        H  0.15911943  0.59852650  0.40183785     0.13800
H752        H  0.09592750  0.65599318  0.43249138     0.14300
C753        C  0.13058277  0.61010352  0.59375567    -0.15300
C754        C  0.12446772  0.64617188  0.57380808    -0.30400
H755        H  0.15910511  0.59944780  0.59916889     0.13800
H756        H  0.09594553  0.65680269  0.56835479     0.14300
C757        C  0.13059816  0.89513753  0.40634534    -0.15300
C758        C  0.12443835  0.85915186  0.42637215    -0.30400
H759        H  0.15913288  0.90566066  0.40082452     0.13800
H760        H  0.09590265  0.84864198  0.43191576     0.14300
C761        C  0.37450502  0.61017357  0.40607498    -0.15300
C762        C  0.38061558  0.64469783  0.42749402    -0.30400
H763        H  0.34598139  0.60044464  0.39973865     0.13800
H764        H  0.40913932  0.65444277  0.43380906     0.14300
C765        C  0.38068291  0.86037914  0.57264556    -0.15300
C766        C  0.37453575  0.89508693  0.59389511    -0.30400
H767        H  0.40921731  0.85057260  0.56643591     0.13800
H768        H  0.34599925  0.90487256  0.60012107     0.14300
C769        C  0.38057038  0.64499629  0.57276294    -0.15300
C770        C  0.37444962  0.61068362  0.59437501    -0.30400
H771        H  0.40909462  0.65454823  0.56627849     0.13800
H772        H  0.34592551  0.60111605  0.60083963     0.14300
C773        C  0.13065780  0.89627584  0.59284028    -0.15300
C774        C  0.12450585  0.86016860  0.57294241    -0.30400
H775        H  0.15919098  0.90689201  0.59827755     0.13800
H776        H  0.09597373  0.84952696  0.56753814     0.14300
C777        C  0.37447556  0.89481920  0.40595285    -0.15300
C778        C  0.38058995  0.86016574  0.42725417    -0.30400
H779        H  0.34595080  0.90456145  0.39964969     0.13800
H780        H  0.40911616  0.85043732  0.43356899     0.14300
O781        O  0.43931030  0.91064284  0.93521168    -0.74100
O782        O  0.39580192  0.95212054  0.96396147    -0.53000
C783        C  0.40529218  0.92090102  0.94307556     0.79600
O784        O  0.06581430  0.91055803  0.73176709    -0.58700
O785        O  0.10928275  0.95190827  0.70284275    -0.51800
C786        C  0.09981538  0.92085121  0.72389922     0.71600
O787        O  0.43928675  0.90977117  0.73103038    -0.73300
O788        O  0.39581918  0.95158715  0.70249497    -0.53900
C789        C  0.40527911  0.92023709  0.72329411     0.77600
O790        O  0.06583331  0.91184528  0.93404545    -0.58400
O791        O  0.10929044  0.95262992  0.96345606    -0.51600
C792        C  0.09983907  0.92189549  0.94212546     0.74200
Zr793      Zr  0.50256009  0.93665680  0.94882361     2.54700
O794        O  0.50308442  0.85463857  0.94565945    -0.79000
O795        O  0.00248917  0.94338423  0.88737728    -0.92400
Zr796      Zr  0.50253270  0.93498547  0.71673239     2.64700
O797        O  0.50190816  0.85278600  0.71660000    -0.97400
O798        O  0.00303151  0.93797397  0.77835140    -0.79400
O799        O  0.46672536  0.93495872  0.99942923    -0.82800
O800        O  0.03828289  0.93467021  0.99951549    -2.17500
O801        O  0.06583822  0.59461711  0.93521492    -0.66200
O802        O  0.10929663  0.55302861  0.96394672    -0.50700
C803        C  0.09984128  0.58418653  0.94297744     0.72600
O804        O  0.43939769  0.59488879  0.73141781    -0.59100
O805        O  0.39585141  0.55302246  0.70300945    -0.51100
C806        C  0.40536831  0.58443873  0.72372739     0.74400
O807        O  0.06576627  0.59328971  0.73290161    -0.70500
O808        O  0.10922520  0.55241005  0.70357780    -0.49200
C809        C  0.09977165  0.58316219  0.72488829     0.75800
O810        O  0.43928946  0.59569072  0.93612998    -0.65800
O811        O  0.39580123  0.55353284  0.96436077    -0.53000
C812        C  0.40527624  0.58503442  0.94369405     0.74200
Zr813      Zr  0.00250713  0.57032671  0.95023546     2.77500
O814        O  0.00200633  0.65252697  0.95010998    -0.96600
O815        O  0.00208819  0.56688231  0.88861921    -0.77400
Zr816      Zr  0.00253091  0.56855211  0.71796344     2.70100
O817        O  0.00366442  0.65051874  0.72180290    -0.78600
O818        O  0.00109187  0.56040195  0.77933740    -0.97700
Zr819      Zr  0.43101382  0.50263218  0.66676375     2.21500
Zr820      Zr  0.07406374  0.00251863  0.00015843     2.11100
O821        O  0.03828925  0.57042348  0.66739327    -2.46400
O822        O  0.46665482  0.57041549  0.66749137    -0.78400
O823        O  0.03923254  0.00345762  0.94865016    -0.70600
O824        O  0.46592169  0.50169163  0.71825255    -2.31600
O825        O  0.46593658  0.50338710  0.94865483    -2.27800
O826        O  0.03929520  0.00172250  0.71822846    -0.72400
H827        H  0.05430881  0.90843120  0.66586981     0.79600
H828        H  0.44946891  0.50148516  0.73768464     0.80700
H829        H  0.05429706  0.59669825  0.00099820     0.82900
H830        H  0.44951576  0.50371670  0.92920228     0.80500
H831        H  0.48245807  0.95888948  0.78445115     0.43600
H832        H  0.02319225  0.54151104  0.78472473     0.42500
H833        H  0.50057766  0.66107855  0.69898730     0.42200
H834        H  0.02231314  0.66135880  0.96586606     0.40200
H835        H  0.02094758  0.54357906  0.88291818     0.43300
H836        H  0.47691342  0.95524878  0.88166385     0.38100
H837        H  0.49769865  0.84466716  0.96910208     0.44200
H838        H  0.02233501  0.84391764  0.70089742     0.40600
H839        H  0.01143011  0.66106648  0.92739923     0.45500
H840        H  0.50225022  0.91226169  0.87896344     0.44200
H841        H  0.51073637  0.84411552  0.73947757     0.44400
H842        H  0.00763401  0.59073630  0.78805074     0.44700
O843        O  0.31571528  0.84440937  0.76838180    -0.74100
O844        O  0.35921985  0.80305965  0.79725028    -0.53000
C845        C  0.34973037  0.83418880  0.77628046     0.79600
O846        O  0.18923643  0.84438973  0.89856760    -0.58700
O847        O  0.14577752  0.80316118  0.86954412    -0.51800
C848        C  0.15523729  0.83415932  0.89065130     0.71600
O849        O  0.31574817  0.84526668  0.89784318    -0.73300
O850        O  0.35923522  0.80356214  0.86924795    -0.53900
C851        C  0.34976090  0.83484504  0.89009452     0.77600
O852        O  0.18922963  0.84333220  0.76740675    -0.58400
O853        O  0.14577803  0.80239871  0.79670856    -0.51600
C854        C  0.15522463  0.83320398  0.77543321     0.74200
Zr855      Zr  0.25248879  0.81856910  0.78222281     2.54700
O856        O  0.25210346  0.90061958  0.77951042    -0.79000
O857        O  0.25247048  0.81182854  0.72069299    -0.92400
Zr858      Zr  0.25251427  0.82011494  0.88343814     2.64700
O859        O  0.25305894  0.90231849  0.88323589    -0.97400
O860        O  0.25206749  0.81729388  0.94510894    -0.79400
O861        O  0.28833829  0.82022849  0.83282144    -0.82800
O862        O  0.21675963  0.82039637  0.83283852    -2.17500
O863        O  0.18928488  0.66047395  0.76853328    -0.66200
O864        O  0.14579267  0.70212962  0.79717305    -0.50700
C865        C  0.15526982  0.67092758  0.77625433     0.72600
O866        O  0.31576239  0.66022457  0.89808519    -0.59100
O867        O  0.35926660  0.70214412  0.86966593    -0.51100
C868        C  0.34978117  0.67072616  0.89039760     0.74400
O869        O  0.18930619  0.66162920  0.89941001    -0.70500
O870        O  0.14585110  0.70254833  0.87010980    -0.49200
C871        C  0.15530387  0.67174385  0.89137948     0.75800
O872        O  0.31589489  0.65962580  0.76932894    -0.65800
O873        O  0.35936659  0.70166284  0.79767665    -0.53000
C874        C  0.34990509  0.67023144  0.77694885     0.74200
Zr875      Zr  0.25263344  0.68486411  0.78348496     2.77500
O876        O  0.25337387  0.60267246  0.78303760    -0.96600
O877        O  0.25303274  0.68865924  0.72188395    -0.77400
Zr878      Zr  0.25256558  0.68638113  0.88457595     2.70100
O879        O  0.25160295  0.60435251  0.88773704    -0.78600
O880        O  0.25379608  0.69368407  0.94601989    -0.97700
Zr881      Zr  0.32407412  0.75255530  0.83344585     2.21500
Zr882      Zr  0.18100706  0.75252994  0.83342655     2.11100
O883        O  0.21681099  0.68467759  0.83401014    -2.46400
O884        O  0.28851724  0.68472099  0.83405392    -0.78400
O885        O  0.21586148  0.75165913  0.78192342    -0.70600
O886        O  0.28911829  0.75325443  0.88492090    -2.31600
O887        O  0.28914896  0.75175585  0.78194739    -2.27800
O888        O  0.21583781  0.75322846  0.88494589    -0.72400
H889        H  0.20074621  0.84666538  0.83265537     0.79600
H890        H  0.30555908  0.75342229  0.90436154     0.80700
H891        H  0.20080418  0.65839684  0.83418703     0.82900
H892        H  0.30557418  0.75144999  0.76249791     0.80500
H893        H  0.27245784  0.79612379  0.95115850     0.43600
H894        H  0.23221204  0.71341579  0.95141882     0.42500
H895        H  0.25398757  0.59435178  0.86390065     0.42200
H896        H  0.23319576  0.59365449  0.79886897     0.40200
H897        H  0.23267710  0.71006218  0.71618560     0.43300
H898        H  0.27743503  0.79941719  0.71494313     0.38100
H899        H  0.25907896  0.91034149  0.80266761     0.44200
H900        H  0.23266794  0.91105406  0.86753945     0.40600
H901        H  0.24382409  0.59425358  0.76034523     0.45500
H902        H  0.25324499  0.84337794  0.71244444     0.44200
H903        H  0.24376571  0.91101804  0.90595572     0.44400
H904        H  0.24632377  0.66353321  0.95448170     0.44700
C905        C  0.13058483  0.60887850  0.74072299    -0.15300
C906        C  0.12447101  0.64511286  0.76049669    -0.30400
H907        H  0.15910578  0.59811965  0.73541102     0.13800
H908        H  0.09595099  0.65590703  0.76576619     0.14300
C909        C  0.13063864  0.60998830  0.92720442    -0.15300
C910        C  0.12449967  0.64596038  0.90716238    -0.30400
H911        H  0.15916690  0.59942038  0.93269070     0.13800
H912        H  0.09597017  0.65649661  0.90163891     0.14300
C913        C  0.13058938  0.89500868  0.73965468    -0.15300
C914        C  0.12442615  0.85898823  0.75964870    -0.30400
H915        H  0.15912346  0.90558569  0.73419044     0.13800
H916        H  0.09589077  0.84842771  0.76513879     0.14300
C917        C  0.37457635  0.61016473  0.73956206    -0.15300
C918        C  0.38071979  0.64464702  0.76101637    -0.30400
H919        H  0.34604328  0.60047650  0.73322580     0.13800
H920        H  0.40925075  0.65434342  0.76734756     0.14300
C921        C  0.38058576  0.86050899  0.90596519    -0.15300
C922        C  0.37447382  0.89513975  0.92728707    -0.30400
H923        H  0.40911221  0.85078441  0.89965297     0.13800
H924        H  0.34594726  0.90485817  0.93360825     0.14300
C925        C  0.38059482  0.64505488  0.90625440    -0.15300
C926        C  0.37446513  0.61061651  0.92775446    -0.30400
H927        H  0.40912296  0.65473455  0.89989241     0.13800
H928        H  0.34593723  0.60092171  0.93409796     0.14300
C929        C  0.13063167  0.89609444  0.92634161    -0.15300
C930        C  0.12446435  0.86001552  0.90640557    -0.30400
H931        H  0.15916874  0.90668039  0.93179610     0.13800
H932        H  0.09592867  0.84941276  0.90097759     0.14300
C933        C  0.37444379  0.89455873  0.73914006    -0.15300
C934        C  0.38054887  0.85990476  0.76044683    -0.30400
H935        H  0.34591956  0.90431907  0.73285001     0.13800
H936        H  0.40907401  0.85016956  0.76675823     0.14300
O937        O  0.93935156  0.41068841  0.26858212    -0.74100
O938        O  0.89585109  0.45216365  0.29734316    -0.53000
C939        C  0.90533411  0.42094288  0.27645074     0.79600
O940        O  0.56580607  0.41055409  0.06520463    -0.58700
O941        O  0.60927855  0.45192132  0.03629731    -0.51800
C942        C  0.59980807  0.42085927  0.05734498     0.71600
O943        O  0.93922696  0.40991875  0.06448101    -0.73300
O944        O  0.89576996  0.45171233  0.03591443    -0.53900
C945        C  0.90522302  0.42039181  0.05673846     0.77600
O946        O  0.56588094  0.41195589  0.26729228    -0.58400
O947        O  0.60934371  0.45278590  0.29665569    -0.51600
C948        C  0.59988911  0.42204809  0.27533339     0.74200
Zr949      Zr  0.00260294  0.43667664  0.28223427     2.54700
O950        O  0.00305964  0.35466422  0.27899529    -0.79000
O951        O  0.50249863  0.44344651  0.22062543    -0.92400
Zr952      Zr  0.00249082  0.43503082  0.05016959     2.64700
O953        O  0.00184579  0.35283651  0.05006828    -0.97400
O954        O  0.50304226  0.43774873  0.11179475    -0.79400
O955        O  0.96678811  0.43506483  0.33285380    -0.82800
O956        O  0.53828356  0.43470023  0.33278393    -2.17500
O957        O  0.56585295  0.09478172  0.26858463    -0.66200
O958        O  0.60932905  0.05307079  0.29719086    -0.50700
C959        C  0.59985877  0.08428860  0.27628107     0.72600
O960        O  0.93934112  0.09478238  0.06484038    -0.59100
O961        O  0.89582592  0.05305673  0.03628086    -0.51100
C962        C  0.90532376  0.08439213  0.05707124     0.74400
O963        O  0.56573823  0.09340611  0.06615339    -0.70500
O964        O  0.60919363  0.05248869  0.03685198    -0.49200
C965        C  0.59974142  0.08326439  0.05814127     0.75800
O966        O  0.93926616  0.09568423  0.26931323    -0.65800
O967        O  0.89578586  0.05345880  0.29749257    -0.53000
C968        C  0.90525470  0.08497351  0.27683963     0.74200
Zr969      Zr  0.50252295  0.07040892  0.28351220     2.77500
O970        O  0.50204631  0.15260313  0.28264080    -0.96600
O971        O  0.50208346  0.06622178  0.22192226    -0.77400
Zr972      Zr  0.50248038  0.06868548  0.05128012     2.70100
O973        O  0.50338753  0.15067055  0.05499441    -0.78600
O974        O  0.50115786  0.06065761  0.11266852    -0.97700
Zr975      Zr  0.93100157  0.00259068  0.00011789     2.21500
Zr976      Zr  0.57408710  0.50255009  0.33340589     2.11100
O977        O  0.53825853  0.07046830  0.00071109    -2.46400
O978        O  0.96662086  0.07037554  0.00082750    -0.78400
O979        O  0.53924287  0.50345993  0.28189402    -0.70600
O980        O  0.96589811  0.00172306  0.05161884    -2.31600
O981        O  0.96597113  0.00347923  0.28183668    -2.27800
O982        O  0.53925392  0.50171091  0.05166665    -0.72400
H983        H  0.55429741  0.40838883  0.99932889     0.79600
H984        H  0.94943871  0.00153828  0.07104631     0.80700
H985        H  0.55431829  0.09679070  0.33427818     0.82900
H986        H  0.94956192  0.00380183  0.26237577     0.80500
H987        H  0.98257527  0.45934917  0.11784566     0.43600
H988        H  0.52350418  0.04220326  0.11808106     0.42500
H989        H  0.99716686  0.16083104  0.03201906     0.42200
H990        H  0.52235214  0.16168353  0.29831806     0.40200
H991        H  0.52183550  0.04397081  0.21632185     0.43300
H992        H  0.97677361  0.45393995  0.21493399     0.38100
H993        H  0.99592553  0.34467129  0.30204846     0.44200
H994        H  0.52266399  0.34395487  0.03446591     0.40600
H995        H  0.51146963  0.16077622  0.25985298     0.45500
H996        H  0.00373045  0.41238719  0.21235929     0.44200
H997        H  0.01096548  0.34416993  0.07285265     0.44400
H998        H  0.50729948  0.09113423  0.12134047     0.44700
O999        O  0.81569775  0.34444047  0.10173391    -0.74100
O1000       O  0.85922330  0.30311598  0.13059248    -0.53000
C1001       C  0.84971582  0.33426453  0.10964971     0.79600
O1002       O  0.68929764  0.34452300  0.23181801    -0.58700
O1003       O  0.64583437  0.30323577  0.20283929    -0.51800
C1004       C  0.65529744  0.33427383  0.22391271     0.71600
O1005       O  0.81576660  0.34528178  0.23122646    -0.73300
O1006       O  0.85922686  0.30360568  0.20257766    -0.53900
C1007       C  0.84977282  0.33486019  0.22346480     0.77600
O1008       O  0.68921855  0.34325664  0.10072962    -0.58400
O1009       O  0.64576382  0.30227369  0.12998494    -0.51600
C1010       C  0.65521342  0.33310333  0.10873754     0.74200
Zr1011     Zr  0.75248718  0.31845769  0.11547093     2.54700
O1012       O  0.75211011  0.40048486  0.11247074    -0.79000
O1013       O  0.75251858  0.31136624  0.05396232    -0.92400
Zr1014     Zr  0.75256063  0.32017962  0.21670533     2.64700
O1015       O  0.75336303  0.40237199  0.21633310    -0.97400
O1016       O  0.75215047  0.31741736  0.27838054    -0.79400
O1017       O  0.78833770  0.32022200  0.16606451    -0.82800
O1018       O  0.71679503  0.32038452  0.16610516    -2.17500
O1019       O  0.68924050  0.16043302  0.10188076    -0.66200
O1020       O  0.64577285  0.20206992  0.13056451    -0.50700
C1021       C  0.65523336  0.17087907  0.10963060     0.72600
O1022       O  0.81575054  0.16026744  0.23135107    -0.59100
O1023       O  0.85926495  0.20208919  0.20285963    -0.51100
C1024       C  0.84976876  0.17069114  0.22359907     0.74400
O1025       O  0.68927806  0.16171679  0.23270582    -0.70500
O1026       O  0.64581705  0.20263341  0.20341592    -0.49200
C1027       C  0.65527480  0.17183276  0.22468039     0.75800
O1028       O  0.81583155  0.15950180  0.10267318    -0.65800
O1029       O  0.85930153  0.20162032  0.13096494    -0.53000
C1030       C  0.84983870  0.17014484  0.11027488     0.74200
Zr1031     Zr  0.75259233  0.18476217  0.11684890     2.77500
O1032       O  0.75316230  0.10256042  0.11691421    -0.96600
O1033       O  0.75297463  0.18814632  0.05522832    -0.77400
Zr1034     Zr  0.75254965  0.18649206  0.21794018     2.70100
O1035       O  0.75160765  0.10448943  0.22140056    -0.78600
O1036       O  0.75363871  0.19418137  0.27935918    -0.97700
Zr1037     Zr  0.82407267  0.25257423  0.16673460     2.21500
Zr1038     Zr  0.68101981  0.25253707  0.16674294     2.11100
O1039       O  0.71679592  0.18468375  0.16738045    -2.46400
O1040       O  0.78847759  0.18477444  0.16740908    -0.78400
O1041       O  0.71583957  0.25156804  0.11522598    -0.70600
O1042       O  0.78915459  0.25331928  0.21822309    -2.31600
O1043       O  0.78913777  0.25164756  0.11523825    -2.27800
O1044       O  0.71583665  0.25333332  0.21826649    -0.72400
H1045       H  0.70079041  0.34666058  0.16590554     0.79600
H1046       H  0.80560638  0.25349059  0.23765607     0.80700
H1047       H  0.70078286  0.15840901  0.16758134     0.82900
H1048       H  0.80555672  0.25132005  0.09578396     0.80500
H1049       H  0.77246777  0.29614428  0.28442984     0.43600
H1050       H  0.73186054  0.21364516  0.28467136     0.42500
H1051       H  0.75543372  0.09432886  0.19775605     0.42200
H1052       H  0.73298197  0.09377511  0.13281782     0.40200
H1053       H  0.73305700  0.21011409  0.04947534     0.43300
H1054       H  0.77778046  0.29986419  0.04820646     0.38100
H1055       H  0.75988269  0.41033728  0.13538924     0.44200
H1056       H  0.73261421  0.41115569  0.20104056     0.40600
H1057       H  0.74357284  0.09391200  0.09428442     0.45500
H1058       H  0.75245938  0.34288125  0.04561183     0.44200
H1059       H  0.74466888  0.41117284  0.23922363     0.44400
H1060       H  0.74643999  0.16398079  0.28791370     0.44700
C1061       C  0.63055283  0.10898584  0.07396052    -0.15300
C1062       C  0.62443005  0.14507150  0.09388218    -0.30400
H1063       H  0.65907645  0.09833843  0.06853379     0.13800
H1064       H  0.59590740  0.15575085  0.09927088     0.14300
C1065       C  0.63063962  0.11008322  0.26049516    -0.15300
C1066       C  0.62448070  0.14605950  0.24046864    -0.30400
H1067       H  0.65917110  0.09949771  0.26594885     0.13800
H1068       H  0.59594850  0.15660753  0.23496761     0.14300
C1069       C  0.63058024  0.39502067  0.07309382    -0.15300
C1070       C  0.62441727  0.35889239  0.09297120    -0.30400
H1071       H  0.65911251  0.40567673  0.06770748     0.13800
H1072       H  0.59588419  0.34825024  0.09838273     0.14300
C1073       C  0.87452226  0.11009538  0.07289622    -0.15300
C1074       C  0.88065658  0.14455614  0.09436660    -0.30400
H1075       H  0.84599421  0.10042705  0.06652490     0.13800
H1076       H  0.90918368  0.15424458  0.10071948     0.14300
C1077       C  0.88060844  0.36049342  0.23937017    -0.15300
C1078       C  0.87450901  0.39517754  0.26065639    -0.30400
H1079       H  0.90913316  0.35071795  0.23309842     0.13800
H1080       H  0.84598386  0.40494833  0.26693683     0.14300
C1081       C  0.88057447  0.14496048  0.23939450    -0.15300
C1082       C  0.87444084  0.11052463  0.26088916    -0.30400
H1083       H  0.90910217  0.15461612  0.23300958     0.13800
H1084       H  0.84591347  0.10084232  0.26724616     0.14300
C1085       C  0.63068230  0.39628133  0.25952254    -0.15300
C1086       C  0.62452131  0.36014820  0.23964268    -0.30400
H1087       H  0.65921711  0.40691591  0.26493306     0.13800
H1088       H  0.59598780  0.34949743  0.23425751     0.14300
C1089       C  0.87439127  0.39473700  0.07259779    -0.15300
C1090       C  0.88051508  0.36004697  0.09386305    -0.30400
H1091       H  0.84586413  0.40450736  0.06632661     0.13800
H1092       H  0.90904426  0.35030505  0.10015408     0.14300
O1093       O  0.93937263  0.41063582  0.60183256    -0.74100
O1094       O  0.89584537  0.45205965  0.63060157    -0.53000
C1095       C  0.90534957  0.42085405  0.60971066     0.79600
O1096       O  0.56579999  0.41048040  0.39837809    -0.58700
O1097       O  0.60927658  0.45182987  0.36946544    -0.51800
C1098       C  0.59980412  0.42074527  0.39049418     0.71600
O1099       O  0.93933490  0.41006098  0.39787977    -0.73300
O1100       O  0.89587148  0.45180083  0.36927973    -0.53900
C1101       C  0.90532638  0.42050464  0.39012825     0.77600
O1102       O  0.56585359  0.41199860  0.60061584    -0.58400
O1103       O  0.60931294  0.45286839  0.62995460    -0.51600
C1104       C  0.59986032  0.42211608  0.60864341     0.74200
Zr1105     Zr  0.00262184  0.43668298  0.61543585     2.54700
O1106       O  0.00323573  0.35467534  0.61217487    -0.79000
O1107       O  0.50253227  0.44365875  0.55394548    -0.92400
Zr1108     Zr  0.00258085  0.43519656  0.38348943     2.64700
O1109       O  0.00202452  0.35300461  0.38329893    -0.97400
O1110       O  0.50306765  0.43865629  0.44504836    -0.79400
O1111       O  0.96678444  0.43488950  0.66603028    -0.82800
O1112       O  0.53830636  0.43473688  0.66606884    -2.17500
O1113       O  0.56582345  0.09471437  0.60189816    -0.66200
O1114       O  0.60929705  0.05303987  0.63054545    -0.50700
C1115       C  0.59983208  0.08424768  0.60962364     0.72600
O1116       O  0.93934318  0.09491737  0.39805755    -0.59100
O1117       O  0.89586002  0.05318906  0.36944768    -0.51100
C1118       C  0.90533038  0.08453612  0.39024408     0.74400
O1119       O  0.56578537  0.09343534  0.39953227    -0.70500
O1120       O  0.60923863  0.05257603  0.37018461    -0.49200
C1121       C  0.59978439  0.08332990  0.39149199     0.75800
O1122       O  0.93927915  0.09555786  0.60255846    -0.65800
O1123       O  0.89580966  0.05355418  0.63094220    -0.53000
C1124       C  0.90527031  0.08495061  0.61018238     0.74200
Zr1125     Zr  0.50246719  0.07041481  0.61686174     2.77500
O1126       O  0.50192568  0.15262010  0.61693564    -0.96600
O1127       O  0.50203190  0.06717840  0.55523735    -0.77400
Zr1128     Zr  0.50254381  0.06870382  0.38466509     2.70100
O1129       O  0.50356658  0.15066938  0.38864046    -0.78600
O1130       O  0.50125972  0.06023350  0.44602410    -0.97700
Zr1131     Zr  0.93103054  0.00262025  0.33333742     2.21500
Zr1132     Zr  0.57407630  0.50259258  0.66675436     2.11100
O1133       O  0.53829372  0.07052541  0.33407895    -2.46400
O1134       O  0.96662889  0.07041690  0.33404513    -0.78400
O1135       O  0.53923871  0.50356408  0.61524758    -0.70600
O1136       O  0.96592069  0.00183804  0.38483943    -2.31600
O1137       O  0.96595699  0.00346022  0.61522887    -2.27800
O1138       O  0.53927204  0.50181047  0.38491436    -0.72400
H1139       H  0.55427602  0.40841247  0.33258383     0.79600
H1140       H  0.94945681  0.00165991  0.40426396     0.80700
H1141       H  0.55427661  0.09673982  0.66763361     0.82900
H1142       H  0.94953300  0.00378736  0.59577875     0.80500
H1143       H  0.98292407  0.45983568  0.45115871     0.43600
H1144       H  0.52353756  0.04160789  0.45133748     0.42500
H1145       H  0.99842900  0.16084778  0.36469712     0.42200
H1146       H  0.52225404  0.16139834  0.63268611     0.40200
H1147       H  0.52078753  0.04377248  0.54949410     0.43300
H1148       H  0.97733003  0.45580861  0.54825912     0.38100
H1149       H  0.99540121  0.34465588  0.63503519     0.44200
H1150       H  0.52247615  0.34382730  0.36835471     0.40600
H1151       H  0.51131036  0.16126355  0.59423395     0.45500
H1152       H  0.00197355  0.41223654  0.54559458     0.44200
H1153       H  0.01079555  0.34432451  0.40619217     0.44400
H1154       H  0.50753864  0.09060635  0.45481845     0.44700
O1155       O  0.81573884  0.34453027  0.43510601    -0.74100
O1156       O  0.85924013  0.30318127  0.46397122    -0.53000
C1157       C  0.84975499  0.33434965  0.44303386     0.79600
O1158       O  0.68926708  0.34468208  0.56504744    -0.58700
O1159       O  0.64578499  0.30334128  0.53613885    -0.51800
C1160       C  0.65526082  0.33441831  0.55716911     0.71600
O1161       O  0.81580881  0.34528640  0.56445738    -0.73300
O1162       O  0.85926448  0.30343491  0.53594567    -0.53900
C1163       C  0.84981393  0.33476365  0.55676441     0.77600
O1164       O  0.68922105  0.34324095  0.43400183    -0.58400
O1165       O  0.64576126  0.30235198  0.46333094    -0.51600
C1166       C  0.65521379  0.33311873  0.44203140     0.74200
Zr1167     Zr  0.75250322  0.31853090  0.44880280     2.54700
O1168       O  0.75209998  0.40054960  0.44567968    -0.79000
O1169       O  0.75273255  0.31138567  0.38729553    -0.92400
Zr1170     Zr  0.75255311  0.32024328  0.55005075     2.64700
O1171       O  0.75342698  0.40243826  0.55000663    -0.97400
O1172       O  0.75209664  0.31734595  0.61172560    -0.79400
O1173       O  0.78833649  0.32026487  0.49940554    -0.82800
O1174       O  0.71680335  0.32046640  0.49944173    -2.17500
O1175       O  0.68922450  0.16058588  0.43516083    -0.66200
O1176       O  0.64576578  0.20213139  0.46393022    -0.50700
C1177       C  0.65522427  0.17099776  0.44294594     0.72600
O1178       O  0.81571937  0.16022842  0.56468425    -0.59100
O1179       O  0.85922341  0.20197518  0.53611911    -0.51100
C1180       C  0.84973615  0.17060427  0.55688806     0.74400
O1181       O  0.68929236  0.16173205  0.56609619    -0.70500
O1182       O  0.64582992  0.20274810  0.53687988    -0.49200
C1183       C  0.65528605  0.17189776  0.55811210     0.75800
O1184       O  0.81574825  0.15963072  0.43584448    -0.65800
O1185       O  0.85922317  0.20172747  0.46414515    -0.53000
C1186       C  0.84975864  0.17029363  0.44341830     0.74200
Zr1187     Zr  0.75254715  0.18485563  0.45019216     2.77500
O1188       O  0.75313505  0.10265928  0.45023026    -0.96600
O1189       O  0.75287364  0.18835873  0.38858007    -0.77400
Zr1190     Zr  0.75254143  0.18657475  0.55130075     2.70100
O1191       O  0.75163828  0.10458871  0.55498262    -0.78600
O1192       O  0.75386418  0.19485166  0.61267137    -0.97700
Zr1193     Zr  0.82405197  0.25258036  0.50005129     2.21500
Zr1194     Zr  0.68099794  0.25262036  0.50011267     2.11100
O1195       O  0.71676777  0.18477149  0.50074170    -2.46400
O1196       O  0.78843695  0.18480658  0.50074823    -0.78400
O1197       O  0.71581070  0.25167042  0.44859167    -0.70600
O1198       O  0.78915025  0.25338113  0.55154741    -2.31600
O1199       O  0.78911674  0.25170408  0.44856894    -2.27800
O1200       O  0.71581475  0.25340992  0.55163655    -0.72400
H1201       H  0.70080846  0.34675118  0.49922963     0.79600
H1202       H  0.80560994  0.25354593  0.57097460     0.80700
H1203       H  0.70074309  0.15850667  0.50094151     0.82900
H1204       H  0.80553380  0.25137015  0.42911449     0.80500
H1205       H  0.77261011  0.29634674  0.61777206     0.43600
H1206       H  0.73155001  0.21338781  0.61803454     0.42500
H1207       H  0.75035630  0.09437185  0.53112843     0.42200
H1208       H  0.73260542  0.09384483  0.46575402     0.40200
H1209       H  0.73365163  0.21123860  0.38289892     0.43300
H1210       H  0.77791557  0.29955919  0.38162764     0.38100
H1211       H  0.75997932  0.41046662  0.46855222     0.44200
H1212       H  0.73330156  0.41132654  0.53408092     0.40600
H1213       H  0.74405018  0.09404524  0.42742384     0.45500
H1214       H  0.75298784  0.34289281  0.37893116     0.44200
H1215       H  0.74383992  0.41112477  0.57262937     0.44400
H1216       H  0.74766547  0.16442921  0.62141696     0.44700
C1217       C  0.63057999  0.10907371  0.40730453    -0.15300
C1218       C  0.62443423  0.14520211  0.42717810    -0.30400
H1219       H  0.65910730  0.09840282  0.40191975     0.13800
H1220       H  0.59590838  0.15590501  0.43252639     0.14300
C1221       C  0.63062585  0.11006461  0.59386128    -0.15300
C1222       C  0.62448451  0.14611695  0.57390209    -0.30400
H1223       H  0.65915407  0.09943564  0.59928222     0.13800
H1224       H  0.59595491  0.15671429  0.56844527     0.14300
C1225       C  0.63057788  0.39485497  0.40620174    -0.15300
C1226       C  0.62441440  0.35887840  0.42623445    -0.30400
H1227       H  0.65911321  0.40538898  0.40069516     0.13800
H1228       H  0.59587850  0.34836180  0.43177024     0.14300
C1229       C  0.87449388  0.11024961  0.40602933    -0.15300
C1230       C  0.88058967  0.14477202  0.42745541    -0.30400
H1231       H  0.84597350  0.10051330  0.39968721     0.13800
H1232       H  0.90910974  0.15452836  0.43377305     0.14300
C1233       C  0.88065064  0.36037541  0.57266655    -0.15300
C1234       C  0.87453985  0.39507237  0.59392930    -0.30400
H1235       H  0.90917620  0.35058087  0.56641342     0.13800
H1236       H  0.84601245  0.40484621  0.60020002     0.14300
C1237       C  0.88055483  0.14485857  0.57266600    -0.15300
C1238       C  0.87444337  0.11049050  0.59422967    -0.30400
H1239       H  0.90907791  0.15446325  0.56622175     0.13800
H1240       H  0.84592113  0.10086995  0.60065722     0.14300
C1241       C  0.63065520  0.39636689  0.59282874    -0.15300
C1242       C  0.62449006  0.36029887  0.57288973    -0.30400
H1243       H  0.65919057  0.40696158  0.59828030     0.13800
H1244       H  0.59595541  0.34968437  0.56746766     0.14300
C1245       C  0.87448483  0.39483818  0.40599013    -0.15300
C1246       C  0.88057945  0.36014861  0.42727051    -0.30400
H1247       H  0.84596177  0.40459323  0.39969220     0.13800
H1248       H  0.90910337  0.35041310  0.43358621     0.14300
O1249       O  0.93931968  0.41057716  0.93530338    -0.74100
O1250       O  0.89579903  0.45203265  0.96405498    -0.53000
C1251       C  0.90529861  0.42081214  0.94316995     0.79600
O1252       O  0.56579437  0.41060883  0.73182847    -0.58700
O1253       O  0.60925607  0.45197810  0.70291148    -0.51800
C1254       C  0.59979411  0.42093538  0.72398034     0.71600
O1255       O  0.93933258  0.40965518  0.73096570    -0.73300
O1256       O  0.89587185  0.45151012  0.70245704    -0.53900
C1257       C  0.90532540  0.42014697  0.72324543     0.77600
O1258       O  0.56583230  0.41181197  0.93408171    -0.58400
O1259       O  0.60930541  0.45263024  0.96344797    -0.51600
C1260       C  0.59984264  0.42187510  0.94213953     0.74200
Zr1261     Zr  0.00255597  0.43661126  0.94893794     2.54700
O1262       O  0.00305031  0.35458432  0.94584748    -0.79000
O1263       O  0.50246993  0.44347586  0.88739757    -0.92400
Zr1264     Zr  0.00257688  0.43488758  0.71666357     2.64700
O1265       O  0.00196170  0.35268539  0.71657473    -0.97400
O1266       O  0.50293198  0.43748783  0.77832774    -0.79400
O1267       O  0.96670930  0.43496719  0.99953120    -0.82800
O1268       O  0.53829302  0.43466500  0.99952646    -2.17500
O1269       O  0.56582230  0.09464573  0.93514852    -0.66200
O1270       O  0.60929093  0.05306287  0.96387464    -0.50700
C1271       C  0.59982767  0.08421800  0.94290831     0.72600
O1272       O  0.93942317  0.09494186  0.73136354    -0.59100
O1273       O  0.89588576  0.05300645  0.70300361    -0.51100
C1274       C  0.90539461  0.08444005  0.72371049     0.74400
O1275       O  0.56571962  0.09326667  0.73297013    -0.70500
O1276       O  0.60916684  0.05247570  0.70355847    -0.49200
C1277       C  0.59972216  0.08317758  0.72491178     0.75800
O1278       O  0.93928928  0.09559597  0.93600043    -0.65800
O1279       O  0.89579920  0.05354770  0.96431925    -0.53000
C1280       C  0.90527479  0.08498025  0.94359552     0.74200
Zr1281     Zr  0.50248877  0.07033218  0.95015226     2.77500
O1282       O  0.50198007  0.15252714  0.94985445    -0.96600
O1283       O  0.50196161  0.06664991  0.88854309    -0.77400
Zr1284     Zr  0.50246446  0.06865782  0.71795866     2.70100
O1285       O  0.50350824  0.15065557  0.72150192    -0.78600
O1286       O  0.50086145  0.06072904  0.77934671    -0.97700
Zr1287     Zr  0.93103221  0.00261940  0.66673684     2.21500
Zr1288     Zr  0.57408045  0.50251262  0.00015001     2.11100
O1289       O  0.53825259  0.07047451  0.66740845    -2.46400
O1290       O  0.96664617  0.07041966  0.66740121    -0.78400
O1291       O  0.53923258  0.50343027  0.94864916    -0.70600
O1292       O  0.96594798  0.00175900  0.71821428    -2.31600
O1293       O  0.96595315  0.00341550  0.94864470    -2.27800
O1294       O  0.53927379  0.50165312  0.71827384    -0.72400
H1295       H  0.55432409  0.40847242  0.66585319     0.79600
H1296       H  0.94949984  0.00158402  0.73764988     0.80700
H1297       H  0.55427975  0.09673671  0.00090731     0.82900
H1298       H  0.94953429  0.00375012  0.92919135     0.80500
H1299       H  0.98217984  0.45846596  0.78436644     0.43600
H1300       H  0.52304482  0.04203217  0.78483530     0.42500
H1301       H  0.00081828  0.16097895  0.69840662     0.42200
H1302       H  0.52262083  0.16143062  0.96522856     0.40200
H1303       H  0.52156212  0.04425802  0.88282575     0.43300
H1304       H  0.97696250  0.45449058  0.88166657     0.38100
H1305       H  0.99674772  0.34465093  0.96911182     0.44200
H1306       H  0.52272741  0.34402498  0.70070141     0.40600
H1307       H  0.51091337  0.16096410  0.92696091     0.45500
H1308       H  0.00303360  0.41212392  0.87910529     0.44200
H1309       H  0.01072249  0.34403980  0.73947879     0.44400
H1310       H  0.50720480  0.09114671  0.78801570     0.44700
O1311       O  0.81571848  0.34445643  0.76841227    -0.74100
O1312       O  0.85921873  0.30302697  0.79721932    -0.53000
C1313       C  0.84973471  0.33419059  0.77627931     0.79600
O1314       O  0.68923181  0.34440133  0.89855560    -0.58700
O1315       O  0.64576768  0.30313557  0.86956546    -0.51800
C1316       C  0.65522986  0.33414585  0.89065988     0.71600
O1317       O  0.81577614  0.34532314  0.89778053    -0.73300
O1318       O  0.85925182  0.30350469  0.86926610    -0.53900
C1319       C  0.84978673  0.33483539  0.89007909     0.77600
O1320       O  0.68923372  0.34337162  0.76741676    -0.58400
O1321       O  0.64578578  0.30250251  0.79676988    -0.51600
C1322       C  0.65523061  0.33329056  0.77548359     0.74200
Zr1323     Zr  0.75248832  0.31856428  0.78221475     2.54700
O1324       O  0.75199694  0.40060756  0.77941028    -0.79000
O1325       O  0.75247629  0.31171110  0.72069208    -0.92400
Zr1326     Zr  0.75253178  0.32013379  0.88346087     2.64700
O1327       O  0.75314331  0.40233899  0.88365594    -0.97400
O1328       O  0.75214529  0.31685793  0.94512636    -0.79400
O1329       O  0.78833009  0.32023841  0.83281835    -0.82800
O1330       O  0.71678675  0.32042363  0.83284827    -2.17500
O1331       O  0.68926129  0.16047572  0.76853473    -0.66200
O1332       O  0.64578634  0.20218449  0.79714868    -0.50700
C1333       C  0.65525067  0.17095788  0.77624447     0.72600
O1334       O  0.81574144  0.16023306  0.89806483    -0.59100
O1335       O  0.85924465  0.20204709  0.86955455    -0.51100
C1336       C  0.84975925  0.17065880  0.89030903     0.74400
O1337       O  0.68928129  0.16165040  0.89935714    -0.70500
O1338       O  0.64582793  0.20260202  0.87008068    -0.49200
C1339       C  0.65527951  0.17177629  0.89133027     0.75800
O1340       O  0.81588299  0.15948743  0.76943134    -0.65800
O1341       O  0.85935827  0.20164131  0.79767496    -0.53000
C1342       C  0.84989656  0.17013712  0.77700997     0.74200
Zr1343     Zr  0.75261428  0.18483203  0.78349620     2.77500
O1344       O  0.75327038  0.10263130  0.78309924    -0.96600
O1345       O  0.75304551  0.18843866  0.72188704    -0.77400
Zr1346     Zr  0.75254715  0.18646681  0.88460738     2.70100
O1347       O  0.75158578  0.10446580  0.88806357    -0.78600
O1348       O  0.75368224  0.19434072  0.94601492    -0.97700
Zr1349     Zr  0.82406217  0.25255854  0.83342119     2.21500
Zr1350     Zr  0.68101113  0.25256614  0.83342139     2.11100
O1351       O  0.71680487  0.18470852  0.83403120    -2.46400
O1352       O  0.78847662  0.18475096  0.83407262    -0.78400
O1353       O  0.71585880  0.25165306  0.78191794    -0.70600
O1354       O  0.78914942  0.25329065  0.88491509    -2.31600
O1355       O  0.78913235  0.25173043  0.78192210    -2.27800
O1356       O  0.71581233  0.25329173  0.88495240    -0.72400
H1357       H  0.70078451  0.34670283  0.83266907     0.79600
H1358       H  0.80560758  0.25344818  0.90434325     0.80700
H1359       H  0.70079546  0.15843028  0.83421534     0.82900
H1360       H  0.80555458  0.25141211  0.76247053     0.80500
H1361       H  0.77317578  0.29658210  0.95111275     0.43600
H1362       H  0.73207240  0.21409365  0.95128637     0.42500
H1363       H  0.75757740  0.09430129  0.86478926     0.42200
H1364       H  0.73371812  0.09367482  0.79957924     0.40200
H1365       H  0.73332204  0.21067681  0.71617582     0.43300
H1366       H  0.77749402  0.29945320  0.71494580     0.38100
H1367       H  0.75853893  0.41038755  0.80265718     0.44200
H1368       H  0.73254272  0.41123850  0.86823733     0.40600
H1369       H  0.74284147  0.09415585  0.76073679     0.45500
H1370       H  0.75310337  0.34324931  0.71240990     0.44200
H1371       H  0.74417956  0.41084566  0.90652501     0.44400
H1372       H  0.74622345  0.16426086  0.95462564     0.44700
C1373       C  0.63054500  0.10888693  0.74073893    -0.15300
C1374       C  0.62444348  0.14514141  0.76049634    -0.30400
H1375       H  0.65906270  0.09811877  0.73542192     0.13800
H1376       H  0.59592646  0.15594987  0.76576117     0.14300
C1377       C  0.63062009  0.11001761  0.92713656    -0.15300
C1378       C  0.62447605  0.14598492  0.90709606    -0.30400
H1379       H  0.65914922  0.09945458  0.93262553     0.13800
H1380       H  0.59594616  0.15651891  0.90157117     0.14300
C1381       C  0.63057707  0.39514439  0.73976673    -0.15300
C1382       C  0.62442712  0.35909459  0.75973035    -0.30400
H1383       H  0.65910723  0.40575898  0.73432682     0.13800
H1384       H  0.59589545  0.34850331  0.76520301     0.14300
C1385       C  0.87459127  0.11011630  0.73958018    -0.15300
C1386       C  0.88071885  0.14454386  0.76108845    -0.30400
H1387       H  0.84606174  0.10044220  0.73321951     0.13800
H1388       H  0.90924691  0.15422685  0.76744194     0.14300
C1389       C  0.88061214  0.36047701  0.90597825    -0.15300
C1390       C  0.87449136  0.39503590  0.92736974    -0.30400
H1391       H  0.90914038  0.35079061  0.89964035     0.13800
H1392       H  0.84596195  0.40470451  0.93372331     0.14300
C1393       C  0.88057839  0.14494160  0.90611247    -0.15300
C1394       C  0.87445879  0.11054332  0.92764697    -0.30400
H1395       H  0.90910360  0.15457242  0.89969762     0.13800
H1396       H  0.84593337  0.10089910  0.93404281     0.14300
C1397       C  0.63062832  0.39606483  0.92635788    -0.15300
C1398       C  0.62445629  0.35999157  0.90641990    -0.30400
H1399       H  0.65916697  0.40664526  0.93181167     0.13800
H1400       H  0.59591950  0.34939210  0.90099136     0.14300
C1401       C  0.87447927  0.39450007  0.73910262    -0.15300
C1402       C  0.88056590  0.35987742  0.76043907    -0.30400
H1403       H  0.84595944  0.40426755  0.73280272     0.13800
H1404       H  0.90908657  0.35013207  0.76675883     0.14300
O1405       O  0.93937003  0.91063643  0.26844093    -0.74100
O1406       O  0.89585370  0.95208246  0.29720771    -0.53000
C1407       C  0.90534953  0.92087811  0.27630695     0.79600
O1408       O  0.56577288  0.91067540  0.06517543    -0.58700
O1409       O  0.60924087  0.95199837  0.03623506    -0.51800
C1410       C  0.59977409  0.92095437  0.05730057     0.71600
O1411       O  0.93923165  0.90981479  0.06445872    -0.73300
O1412       O  0.89577835  0.95165395  0.03592402    -0.53900
C1413       C  0.90522729  0.92031856  0.05673862     0.77600
O1414       O  0.56582645  0.91198683  0.26736498    -0.58400
O1415       O  0.60930810  0.95279719  0.29672356    -0.51600
C1416       C  0.59983844  0.92204564  0.27541418     0.74200
Zr1417     Zr  0.00260767  0.93664847  0.28211009     2.54700
O1418       O  0.00319325  0.85463080  0.27888873    -0.79000
O1419       O  0.50241148  0.94392152  0.22067742    -0.92400
Zr1420     Zr  0.00250324  0.93487137  0.05009788     2.64700
O1421       O  0.00171432  0.85267505  0.04981756    -0.97400
O1422       O  0.50297697  0.93817973  0.11173389    -0.79400
O1423       O  0.96675626  0.93494148  0.33270787    -0.82800
O1424       O  0.53828220  0.93483996  0.33281095    -2.17500
O1425       O  0.56585893  0.59447339  0.26843120    -0.66200
O1426       O  0.60934612  0.55298569  0.29721162    -0.50700
C1427       C  0.59986668  0.58409057  0.27621025     0.72600
O1428       O  0.93928709  0.59490899  0.06478002    -0.59100
O1429       O  0.89579240  0.55318512  0.03618959    -0.51100
C1430       C  0.90527301  0.58452531  0.05698143     0.74400
O1431       O  0.56576971  0.59322943  0.06625131    -0.70500
O1432       O  0.60923921  0.55242003  0.03688433    -0.49200
C1433       C  0.59977298  0.58315969  0.05820023     0.75800
O1434       O  0.93926497  0.59555902  0.26918548    -0.65800
O1435       O  0.89580917  0.55350282  0.29754213    -0.53000
C1436       C  0.90525766  0.58490123  0.27678499     0.74200
Zr1437     Zr  0.50251023  0.57028690  0.28346131     2.77500
O1438       O  0.50189549  0.65248329  0.28352204    -0.96600
O1439       O  0.50226871  0.56715989  0.22183364    -0.77400
Zr1440     Zr  0.50252738  0.56853658  0.05135607     2.70100
O1441       O  0.50335529  0.65053987  0.05475974    -0.78600
O1442       O  0.50121490  0.56081361  0.11276661    -0.97700
Zr1443     Zr  0.93099483  0.50264537  0.00010944     2.21500
Zr1444     Zr  0.57408960  0.00267194  0.33343922     2.11100
O1445       O  0.53829091  0.57035969  0.00078632    -2.46400
O1446       O  0.96660753  0.57043086  0.00078986    -0.78400
O1447       O  0.53926672  0.00360180  0.28192388    -0.70600
O1448       O  0.96585791  0.50186816  0.05162930    -2.31600
O1449       O  0.96596744  0.50348516  0.28191632    -2.27800
O1450       O  0.53922159  0.00186632  0.05160100    -0.72400
H1451       H  0.55425899  0.90849956  0.99927157     0.79600
H1452       H  0.94938537  0.50170608  0.07104809     0.80700
H1453       H  0.55432158  0.59666038  0.33421741     0.82900
H1454       H  0.94954942  0.50376570  0.26246137     0.80500
H1455       H  0.98268513  0.95902820  0.11781861     0.43600
H1456       H  0.52351455  0.54230132  0.11822339     0.42500
H1457       H  0.00173012  0.66091796  0.03126585     0.42200
H1458       H  0.52150554  0.66125861  0.29999944     0.40200
H1459       H  0.51977052  0.54235840  0.21615891     0.43300
H1460       H  0.97706910  0.95455597  0.21482074     0.38100
H1461       H  0.99697984  0.84462156  0.30215410     0.44200
H1462       H  0.52289719  0.84403644  0.03487195     0.40600
H1463       H  0.51226925  0.66116377  0.26118296     0.45500
H1464       H  0.00301156  0.91207332  0.21228899     0.44200
H1465       H  0.01008754  0.84392706  0.07281723     0.44400
H1466       H  0.50743627  0.59130987  0.12135288     0.44700
O1467       O  0.81565900  0.84451729  0.10183219    -0.74100
O1468       O  0.85916309  0.80303979  0.13059260    -0.53000
C1469       C  0.84967472  0.83426145  0.10970201     0.79600
O1470       O  0.68920971  0.84451840  0.23182295    -0.58700
O1471       O  0.64571810  0.80322031  0.20288765    -0.51800
C1472       C  0.65519910  0.83425910  0.22395284     0.71600
O1473       O  0.81578566  0.84527540  0.23107139    -0.73300
O1474       O  0.85923983  0.80342656  0.20255683    -0.53900
C1475       C  0.84979304  0.83476745  0.22336661     0.77600
O1476       O  0.68918535  0.84328509  0.10067935    -0.58400
O1477       O  0.64572501  0.80245527  0.13005103    -0.51600
C1478       C  0.65517988  0.83321623  0.10874512     0.74200
Zr1479     Zr  0.75243274  0.81849548  0.11549896     2.54700
O1480       O  0.75192680  0.90052679  0.11255198    -0.79000
O1481       O  0.75257931  0.81148146  0.05398503    -0.92400
Zr1482     Zr  0.75250420  0.82019826  0.21673099     2.64700
O1483       O  0.75323597  0.90239695  0.21668564    -0.97400
O1484       O  0.75211229  0.81722190  0.27840029    -0.79400
O1485       O  0.78828547  0.82021336  0.16608933    -0.82800
O1486       O  0.71673460  0.82042023  0.16613128    -2.17500
O1487       O  0.68915874  0.66047983  0.10190589    -0.66200
O1488       O  0.64567775  0.70211988  0.13056761    -0.50700
C1489       C  0.65515115  0.67091916  0.10964263     0.72600
O1490       O  0.81564427  0.66010759  0.23131425    -0.59100
O1491       O  0.85914346  0.70194527  0.20281815    -0.51100
C1492       C  0.84966058  0.67051995  0.22353728     0.74400
O1493       O  0.68922165  0.66164966  0.23269478    -0.70500
O1494       O  0.64575341  0.70263489  0.20346663    -0.49200
C1495       C  0.65521914  0.67177561  0.22468618     0.75800
O1496       O  0.81573215  0.65957479  0.10261351    -0.65800
O1497       O  0.85921013  0.70159223  0.13097317    -0.53000
C1498       C  0.84974260  0.67018223  0.11023387     0.74200
Zr1499     Zr  0.75249715  0.68479310  0.11687236     2.77500
O1500       O  0.75305506  0.60258467  0.11671492    -0.96600
O1501       O  0.75289583  0.68837994  0.05526165    -0.77400
Zr1502     Zr  0.75246434  0.68654565  0.21800293     2.70100
O1503       O  0.75139727  0.60458201  0.22191151    -0.78600
O1504       O  0.75347768  0.69486292  0.27938329    -0.97700
Zr1505     Zr  0.82398171  0.75252161  0.16674200     2.21500
Zr1506     Zr  0.68092702  0.75258130  0.16677053     2.11100
O1507       O  0.71672010  0.68473200  0.16742470    -2.46400
O1508       O  0.78836129  0.68474123  0.16744682    -0.78400
O1509       O  0.71575874  0.75161559  0.11525818    -0.70600
O1510       O  0.78910239  0.75333641  0.21825523    -2.31600
O1511       O  0.78905048  0.75165606  0.11525189    -2.27800
O1512       O  0.71574917  0.75338287  0.21829085    -0.72400
H1513       H  0.70074065  0.84670620  0.16593288     0.79600
H1514       H  0.80556641  0.75350418  0.23767951     0.80700
H1515       H  0.70070878  0.65845567  0.16762192     0.82900
H1516       H  0.80546699  0.75132434  0.09579661     0.80500
H1517       H  0.77318402  0.79703572  0.28443928     0.43600
H1518       H  0.73149608  0.71404367  0.28459292     0.42500
H1519       H  0.75681456  0.59418093  0.19858145     0.42200
H1520       H  0.73341176  0.59374182  0.13314187     0.40200
H1521       H  0.73366527  0.71124805  0.04957863     0.43300
H1522       H  0.77787480  0.80006588  0.04825285     0.38100
H1523       H  0.75834026  0.91037797  0.13581138     0.44200
H1524       H  0.73233183  0.91127148  0.20159658     0.40600
H1525       H  0.74272356  0.59401254  0.09433638     0.45500
H1526       H  0.75246486  0.84300645  0.04565614     0.44200
H1527       H  0.74475855  0.91101848  0.23968140     0.44400
H1528       H  0.74659789  0.66464156  0.28810860     0.44700
C1529       C  0.63055212  0.60894816  0.07400469    -0.15300
C1530       C  0.62437851  0.64506449  0.09389041    -0.30400
H1531       H  0.65908785  0.59833358  0.06859415     0.13800
H1532       H  0.59584361  0.65571745  0.09925513     0.14300
C1533       C  0.63063194  0.60991348  0.26042543    -0.15300
C1534       C  0.62444437  0.64592538  0.24043664    -0.30400
H1535       H  0.65917085  0.59935815  0.26588217     0.13800
H1536       H  0.59590469  0.65645606  0.23495106     0.14300
C1537       C  0.63054845  0.89510756  0.07305203    -0.15300
C1538       C  0.62438598  0.85902007  0.09297587    -0.30400
H1539       H  0.65908224  0.90572568  0.06763140     0.13800
H1540       H  0.59585096  0.84842272  0.09842711     0.14300
C1541       C  0.87445154  0.61022638  0.07278086    -0.15300
C1542       C  0.88056571  0.64463348  0.09430034    -0.30400
H1543       H  0.84592865  0.60058001  0.06637097     0.13800
H1544       H  0.90908816  0.65429415  0.10069368     0.14300
C1545       C  0.88063525  0.86039908  0.23925383    -0.15300
C1546       C  0.87453308  0.89511877  0.26050243    -0.30400
H1547       H  0.90915978  0.85058176  0.23301615     0.13800
H1548       H  0.84600681  0.90491529  0.26675592     0.14300
C1549       C  0.88049453  0.64477768  0.23928357    -0.15300
C1550       C  0.87441059  0.61037808  0.26081611    -0.30400
H1551       H  0.90901079  0.65443779  0.23286071     0.13800
H1552       H  0.84589540  0.60070219  0.26722343     0.14300
C1553       C  0.63061596  0.89623464  0.25961613    -0.15300
C1554       C  0.62443492  0.86012401  0.23971644    -0.30400
H1555       H  0.65915686  0.90684191  0.26502903     0.13800
H1556       H  0.59589521  0.84949590  0.23433122     0.14300
C1557       C  0.87438718  0.89468702  0.07261438    -0.15300
C1558       C  0.88049205  0.86002752  0.09391561    -0.30400
H1559       H  0.84586415  0.90445186  0.06632376     0.13800
H1560       H  0.90901689  0.85028296  0.10022074     0.14300
O1561       O  0.93930219  0.91071816  0.60181682    -0.74100
O1562       O  0.89580257  0.95213892  0.63062851    -0.53000
C1563       C  0.90528784  0.92095641  0.60970972     0.79600
O1564       O  0.56583784  0.91080725  0.39857247    -0.58700
O1565       O  0.60930078  0.95202737  0.36953755    -0.51800
C1566       C  0.59983860  0.92104220  0.39065189     0.71600
O1567       O  0.93930597  0.90989354  0.39775508    -0.73300
O1568       O  0.89583808  0.95164622  0.36917113    -0.53900
C1569       C  0.90529863  0.92034493  0.39001586     0.77600
O1570       O  0.56585917  0.91187103  0.60079739    -0.58400
O1571       O  0.60932224  0.95274877  0.63011973    -0.51600
C1572       C  0.59986562  0.92194352  0.60885440     0.74200
Zr1573     Zr  0.00257338  0.93661528  0.61547324     2.54700
O1574       O  0.00319401  0.85457560  0.61257202    -0.79000
O1575       O  0.50251707  0.94388005  0.55398550    -0.92400
Zr1576     Zr  0.00254340  0.93499745  0.38334686     2.64700
O1577       O  0.00191710  0.85280540  0.38296102    -0.97400
O1578       O  0.50284248  0.93770307  0.44511103    -0.79400
O1579       O  0.96672246  0.93490678  0.66606757    -0.82800
O1580       O  0.53827039  0.93475885  0.66612542    -2.17500
O1581       O  0.56582209  0.59473296  0.60192608    -0.66200
O1582       O  0.60931128  0.55316205  0.63063154    -0.50700
C1583       C  0.59983225  0.58433743  0.60968714     0.72600
O1584       O  0.93937493  0.59515428  0.39799871    -0.59100
O1585       O  0.89588307  0.55332081  0.36949623    -0.51100
C1586       C  0.90535924  0.58471022  0.39024913     0.74400
O1587       O  0.56575556  0.59333988  0.39953457    -0.70500
O1588       O  0.60920977  0.55247738  0.37018985    -0.49200
C1589       C  0.59975825  0.58323489  0.39150249     0.75800
O1590       O  0.93922935  0.59554271  0.60259444    -0.65800
O1591       O  0.89577685  0.55340637  0.63088555    -0.53000
C1592       C  0.90522326  0.58485019  0.61016249     0.74200
Zr1593     Zr  0.50249115  0.57036568  0.61688349     2.77500
O1594       O  0.50184962  0.65255926  0.61650105    -0.96600
O1595       O  0.50229358  0.56684031  0.55526585    -0.77400
Zr1596     Zr  0.50253022  0.56862275  0.38458075     2.70100
O1597       O  0.50368341  0.65061336  0.38816642    -0.78600
O1598       O  0.50125935  0.56031009  0.44595017    -0.97700
Zr1599     Zr  0.93105963  0.50273627  0.33342222     2.21500
Zr1600     Zr  0.57403924  0.00262172  0.66676273     2.11100
O1601       O  0.53829790  0.57039443  0.33401297    -2.46400
O1602       O  0.96664807  0.57055515  0.33401099    -0.78400
O1603       O  0.53921636  0.00359367  0.61523796    -0.70600
O1604       O  0.96595663  0.50204032  0.38491736    -2.31600
O1605       O  0.96597002  0.50348495  0.61520912    -2.27800
O1606       O  0.53929149  0.00189528  0.38497375    -0.72400
H1607       H  0.55428243  0.90855989  0.33261533     0.79600
H1608       H  0.94949626  0.50190206  0.40434436     0.80700
H1609       H  0.55425906  0.59671080  0.66766545     0.82900
H1610       H  0.94954562  0.50381181  0.59575937     0.80500
H1611       H  0.98262753  0.95903437  0.45107514     0.43600
H1612       H  0.52386169  0.54229884  0.45133902     0.42500
H1613       H  0.01070777  0.66101757  0.36545477     0.42200
H1614       H  0.52203119  0.66151995  0.63234762     0.40200
H1615       H  0.52130195  0.54368518  0.54962843     0.43300
H1616       H  0.97720837  0.95518865  0.54823181     0.38100
H1617       H  0.99494159  0.84472898  0.63535446     0.44200
H1618       H  0.52277789  0.84415552  0.36784778     0.40600
H1619       H  0.51141398  0.66099948  0.59381649     0.45500
H1620       H  0.00212754  0.91182648  0.54569550     0.44200
H1621       H  0.00992315  0.84404136  0.40606402     0.44400
H1622       H  0.50695410  0.59087116  0.45470170     0.44700
O1623       O  0.81576874  0.84451848  0.43515750    -0.74100
O1624       O  0.85926920  0.80308006  0.46395291    -0.53000
C1625       C  0.84978471  0.83426391  0.44302513     0.79600
O1626       O  0.68922206  0.84443322  0.56527671    -0.58700
O1627       O  0.64573704  0.80321959  0.53627021    -0.51800
C1628       C  0.65521547  0.83419804  0.55738282     0.71600
O1629       O  0.81575879  0.84533457  0.56450325    -0.73300
O1630       O  0.85923216  0.80354624  0.53595798    -0.53900
C1631       C  0.84976611  0.83486371  0.55677941     0.77600
O1632       O  0.68926942  0.84353202  0.43414283    -0.58400
O1633       O  0.64580432  0.80255620  0.46339864    -0.51600
C1634       C  0.65526238  0.83339149  0.44215411     0.74200
Zr1635     Zr  0.75251165  0.81866783  0.44890617     2.54700
O1636       O  0.75229851  0.90069919  0.44584218    -0.79000
O1637       O  0.75251168  0.81164712  0.38739169    -0.92400
Zr1638     Zr  0.75251868  0.82020133  0.55014416     2.64700
O1639       O  0.75310907  0.90239921  0.55006711    -0.97400
O1640       O  0.75215570  0.81720942  0.61181628    -0.79400
O1641       O  0.78833230  0.82029423  0.49951884    -0.82800
O1642       O  0.71677983  0.82051279  0.49953352    -2.17500
O1643       O  0.68921844  0.66052689  0.43523644    -0.66200
O1644       O  0.64574754  0.70207552  0.46398777    -0.50700
C1645       C  0.65521113  0.67090085  0.44303366     0.72600
O1646       O  0.81566672  0.66005690  0.56459825    -0.59100
O1647       O  0.85918732  0.70200724  0.53622485    -0.51100
C1648       C  0.84968823  0.67051708  0.55688786     0.74400
O1649       O  0.68925246  0.66175647  0.56606482    -0.70500
O1650       O  0.64578720  0.70286191  0.53692580    -0.49200
C1651       C  0.65524503  0.67197948  0.55813021     0.75800
O1652       O  0.81577164  0.65976943  0.43586033    -0.65800
O1653       O  0.85924456  0.70163037  0.46435977    -0.53000
C1654       C  0.84978120  0.67029844  0.44355097     0.74200
Zr1655     Zr  0.75254181  0.68499510  0.45015580     2.77500
O1656       O  0.75326798  0.60280387  0.44982603    -0.96600
O1657       O  0.75276305  0.68891037  0.38855327    -0.77400
Zr1658     Zr  0.75251555  0.68656298  0.55130192     2.70100
O1659       O  0.75155173  0.60460204  0.55528558    -0.78600
O1660       O  0.75380292  0.69506091  0.61265924    -0.97700
Zr1661     Zr  0.82404507  0.75260568  0.50011954     2.21500
Zr1662     Zr  0.68097457  0.75266133  0.50012630     2.11100
O1663       O  0.71677240  0.68481976  0.50071869    -2.46400
O1664       O  0.78839898  0.68484915  0.50073749    -0.78400
O1665       O  0.71580336  0.75181285  0.44861014    -0.70600
O1666       O  0.78914151  0.75335354  0.55161656    -2.31600
O1667       O  0.78912905  0.75183537  0.44861692    -2.27800
O1668       O  0.71578467  0.75337786  0.55164866    -0.72400
H1669       H  0.70078229  0.84679597  0.49935977     0.79600
H1670       H  0.80559743  0.75349937  0.57104676     0.80700
H1671       H  0.70075984  0.65854424  0.50091027     0.82900
H1672       H  0.80554669  0.75152695  0.42916188     0.80500
H1673       H  0.77309686  0.79681929  0.61784007     0.43600
H1674       H  0.73156095  0.71375311  0.61796294     0.42500
H1675       H  0.75090603  0.59422407  0.53144901     0.42200
H1676       H  0.73268285  0.59381456  0.46523391     0.40200
H1677       H  0.73351756  0.71180934  0.38298101     0.43300
H1678       H  0.77797385  0.80086516  0.38157099     0.38100
H1679       H  0.75978096  0.91056957  0.46883473     0.44200
H1680       H  0.73245135  0.91120159  0.53467935     0.40600
H1681       H  0.74431034  0.59434914  0.42694472     0.45500
H1682       H  0.75181644  0.84316024  0.37906006     0.44200
H1683       H  0.74422356  0.91103022  0.57293446     0.44400
H1684       H  0.74746271  0.66471026  0.62146288     0.44700
C1685       C  0.63056094  0.60900120  0.40731706    -0.15300
C1686       C  0.62441869  0.64502190  0.42731298    -0.30400
H1687       H  0.65909245  0.59845281  0.40181714     0.13800
H1688       H  0.59588821  0.65560313  0.43277475     0.14300
C1689       C  0.63060781  0.61019309  0.59393283    -0.15300
C1690       C  0.62444867  0.64621490  0.57394448    -0.30400
H1691       H  0.65914120  0.59960167  0.59937151     0.13800
H1692       H  0.59591495  0.65678841  0.56847881     0.14300
C1693       C  0.63062080  0.89521944  0.40640963    -0.15300
C1694       C  0.62446494  0.85919038  0.42639086    -0.30400
H1695       H  0.65915310  0.90579996  0.40093996     0.13800
H1696       H  0.59593136  0.84861858  0.43187582     0.14300
C1697       C  0.87452460  0.61039046  0.40605797    -0.15300
C1698       C  0.88061644  0.64475996  0.42761709    -0.30400
H1699       H  0.84600618  0.60074789  0.39962911     0.13800
H1700       H  0.90913399  0.65439904  0.43404576     0.14300
C1701       C  0.88058913  0.86051652  0.57265288    -0.15300
C1702       C  0.87447095  0.89520782  0.59391708    -0.30400
H1703       H  0.90911596  0.85073609  0.56639160     0.13800
H1704       H  0.84594382  0.90497306  0.60019687     0.14300
C1705       C  0.88049953  0.64474682  0.57265130    -0.15300
C1706       C  0.87438779  0.61034639  0.59418522    -0.30400
H1707       H  0.90902349  0.65439367  0.56624615     0.13800
H1708       H  0.84586608  0.60068376  0.60057969     0.14300
C1709       C  0.63064616  0.89608811  0.59311645    -0.15300
C1710       C  0.62445667  0.86003864  0.57316103    -0.30400
H1711       H  0.65918817  0.90663732  0.59858974     0.13800
H1712       H  0.59591528  0.84947530  0.56771157     0.14300
C1713       C  0.87447487  0.89468942  0.40590928    -0.15300
C1714       C  0.88059678  0.86000414  0.42719204    -0.30400
H1715       H  0.84594581  0.90446645  0.39965283     0.13800
H1716       H  0.90912677  0.85024212  0.43346243     0.14300
O1717       O  0.93934328  0.91064176  0.93513559    -0.74100
O1718       O  0.89583996  0.95196095  0.96402786    -0.53000
C1719       C  0.90532847  0.92081228  0.94307321     0.79600
O1720       O  0.56582727  0.91062586  0.73178658    -0.58700
O1721       O  0.60927782  0.95198825  0.70285714    -0.51800
C1722       C  0.59982761  0.92091825  0.72390700     0.71600
O1723       O  0.93929965  0.90983349  0.73109035    -0.73300
O1724       O  0.89582787  0.95162376  0.70254192    -0.53900
C1725       C  0.90529134  0.92031110  0.72337485     0.77600
O1726       O  0.56584850  0.91193424  0.93401236    -0.58400
O1727       O  0.60930579  0.95272730  0.96341669    -0.51600
C1728       C  0.59985647  0.92197651  0.94209970     0.74200
Zr1729     Zr  0.00257187  0.93656748  0.94889773     2.54700
O1730       O  0.00304493  0.85451285  0.94618776    -0.79000
O1731       O  0.50221268  0.94377429  0.88731767    -0.92400
Zr1732     Zr  0.00254661  0.93490538  0.71668267     2.64700
O1733       O  0.00187841  0.85270366  0.71650803    -0.97400
O1734       O  0.50308683  0.93805573  0.77840479    -0.79400
O1735       O  0.96670486  0.93490840  0.99947403    -0.82800
O1736       O  0.53825654  0.93477792  0.99946166    -2.17500
O1737       O  0.56582948  0.59447429  0.93513876    -0.66200
O1738       O  0.60930305  0.55298169  0.96393274    -0.50700
C1739       C  0.59983766  0.58408059  0.94291841     0.72600
O1740       O  0.93933558  0.59477937  0.73139708    -0.59100
O1741       O  0.89584020  0.55296664  0.70288420    -0.51100
C1742       C  0.90531942  0.58432848  0.72365906     0.74400
O1743       O  0.56580081  0.59333649  0.73280665    -0.70500
O1744       O  0.60925783  0.55243962  0.70350520    -0.49200
C1745       C  0.59980270  0.58323611  0.72477469     0.75800
O1746       O  0.93929399  0.59563715  0.93600831    -0.65800
O1747       O  0.89579744  0.55350268  0.96424721    -0.53000
C1748       C  0.90527859  0.58496922  0.94355855     0.74200
Zr1749     Zr  0.50249513  0.57024930  0.95024270     2.77500
O1750       O  0.50206612  0.65245260  0.94993722    -0.96600
O1751       O  0.50185409  0.56640807  0.88864366    -0.77400
Zr1752     Zr  0.50255982  0.56846846  0.71805498     2.70100
O1753       O  0.50385454  0.65036787  0.72256305    -0.78600
O1754       O  0.50138715  0.55960668  0.77938327    -0.97700
Zr1755     Zr  0.93105204  0.50256330  0.66670507     2.21500
Zr1756     Zr  0.57405034  0.00261604  0.00008769     2.11100
O1757       O  0.53825967  0.57042396  0.66744730    -2.46400
O1758       O  0.96660109  0.57040513  0.66742169    -0.78400
O1759       O  0.53924460  0.00352487  0.94855694    -0.70600
O1760       O  0.96594940  0.50171889  0.71819930    -2.31600
O1761       O  0.96594645  0.50345582  0.94862682    -2.27800
O1762       O  0.53921778  0.00184880  0.71827725    -0.72400
H1763       H  0.55426991  0.90847820  0.66593385     0.79600
H1764       H  0.94948796  0.50151499  0.73762524     0.80700
H1765       H  0.55430731  0.59663265  0.00098459     0.82900
H1766       H  0.94953998  0.50376681  0.92916413     0.80500
H1767       H  0.98201824  0.95824370  0.78439837     0.43600
H1768       H  0.52393574  0.54142986  0.78464049     0.42500
H1769       H  0.00380802  0.66084213  0.69794722     0.42200
H1770       H  0.52175703  0.66130148  0.96631463     0.40200
H1771       H  0.52090549  0.54332367  0.88296237     0.43300
H1772       H  0.97755754  0.95593139  0.88167706     0.38100
H1773       H  0.99677938  0.84477379  0.96950701     0.44200
H1774       H  0.52259506  0.84398919  0.70124233     0.40600
H1775       H  0.51236300  0.66093195  0.92752543     0.45500
H1776       H  0.00158593  0.91184986  0.87911010     0.44200
H1777       H  0.01104103  0.84399715  0.73927007     0.44400
H1778       H  0.50722042  0.59005844  0.78827495     0.44700
O1779       O  0.81578518  0.84450574  0.76854309    -0.74100
O1780       O  0.85929773  0.80300677  0.79727408    -0.53000
C1781       C  0.84980374  0.83423435  0.77638880     0.79600
O1782       O  0.68928320  0.84433687  0.89865319    -0.58700
O1783       O  0.64581105  0.80317257  0.86958429    -0.51800
C1784       C  0.65527871  0.83413470  0.89072287     0.71600
O1785       O  0.81579079  0.84508478  0.89789978    -0.73300
O1786       O  0.85926445  0.80339063  0.86927610    -0.53900
C1787       C  0.84980071  0.83465147  0.89015074     0.77600
O1788       O  0.68927819  0.84331363  0.76735494    -0.58400
O1789       O  0.64579928  0.80238136  0.79662694    -0.51600
C1790       C  0.65526540  0.83317498  0.77534827     0.74200
Zr1791     Zr  0.75253188  0.81860067  0.78224137     2.54700
O1792       O  0.75206953  0.90064673  0.77944742    -0.79000
O1793       O  0.75265955  0.81200189  0.72070542    -0.92400
Zr1794     Zr  0.75254380  0.82002768  0.88345673     2.64700
O1795       O  0.75323775  0.90222232  0.88320723    -0.97400
O1796       O  0.75216607  0.81704130  0.94512756    -0.79400
O1797       O  0.78837331  0.82017583  0.83284207    -0.82800
O1798       O  0.71678520  0.82038448  0.83285430    -2.17500
O1799       O  0.68923412  0.66067777  0.76835150    -0.66200
O1800       O  0.64574762  0.70212792  0.79716354    -0.50700
C1801       C  0.65522462  0.67102959  0.77615606     0.72600
O1802       O  0.81575327  0.66009355  0.89793165    -0.59100
O1803       O  0.85927070  0.70203020  0.86954164    -0.51100
C1804       C  0.84977590  0.67058923  0.89024293     0.74400
O1805       O  0.68931896  0.66147775  0.89931967    -0.70500
O1806       O  0.64586732  0.70252154  0.87011058    -0.49200
C1807       C  0.65531685  0.67165103  0.89133197     0.75800
O1808       O  0.81578391  0.65942276  0.76930183    -0.65800
O1809       O  0.85926788  0.70148294  0.79761539    -0.53000
C1810       C  0.84979551  0.67002361  0.77691476     0.74200
Zr1811     Zr  0.75258332  0.68489652  0.78340835     2.77500
O1812       O  0.75286688  0.60269517  0.78290708    -0.96600
O1813       O  0.75333978  0.68870919  0.72180859    -0.77400
Zr1814     Zr  0.75254972  0.68635622  0.88452741     2.70100
O1815       O  0.75157395  0.60436513  0.88813736    -0.78600
O1816       O  0.75372455  0.69434824  0.94592510    -0.97700
Zr1817     Zr  0.82407803  0.75248093  0.83339192     2.21500
Zr1818     Zr  0.68098645  0.75254206  0.83340121     2.11100
O1819       O  0.71679288  0.68469702  0.83395262    -2.46400
O1820       O  0.78846535  0.68468128  0.83397994    -0.78400
O1821       O  0.71585265  0.75172519  0.78189514    -0.70600
O1822       O  0.78914983  0.75316887  0.88487671    -2.31600
O1823       O  0.78915124  0.75175689  0.78189196    -2.27800
O1824       O  0.71581495  0.75318630  0.88491435    -0.72400
H1825       H  0.70078188  0.84666302  0.83268138     0.79600
H1826       H  0.80560088  0.75330220  0.90431011     0.80700
H1827       H  0.70077866  0.65842276  0.83411489     0.82900
H1828       H  0.80557292  0.75145936  0.76243925     0.80500
H1829       H  0.77235026  0.79555812  0.95112110     0.43600
H1830       H  0.73156710  0.71316653  0.95126648     0.42500
H1831       H  0.75257229  0.59415679  0.86426927     0.42200
H1832       H  0.73210686  0.59379224  0.79815137     0.40200
H1833       H  0.73402537  0.71145002  0.71607411     0.43300
H1834       H  0.77790037  0.80044673  0.71493503     0.38100
H1835       H  0.75916333  0.91042099  0.80256281     0.44200
H1836       H  0.73222811  0.91102258  0.86821324     0.40600
H1837       H  0.74406196  0.59439627  0.75994433     0.45500
H1838       H  0.75270176  0.84358481  0.71249896     0.44200
H1839       H  0.74491389  0.91093674  0.90622842     0.44400
H1840       H  0.74720008  0.66397607  0.95457699     0.44700
C1841       C  0.63059739  0.60904413  0.74054169    -0.15300
C1842       C  0.62444463  0.64518595  0.76040301    -0.30400
H1843       H  0.65912853  0.59840630  0.73513715     0.13800
H1844       H  0.59591357  0.65584422  0.76577815     0.14300
C1845       C  0.63063533  0.60985161  0.92711335    -0.15300
C1846       C  0.62450648  0.64587103  0.90711610    -0.30400
H1847       H  0.65916115  0.59923361  0.93255590     0.13800
H1848       H  0.59597992  0.65646838  0.90164842     0.14300
C1849       C  0.63061926  0.89506978  0.73964363    -0.15300
C1850       C  0.62447232  0.85893663  0.75952807    -0.30400
H1851       H  0.65914882  0.90574364  0.73426500     0.13800
H1852       H  0.59594029  0.84828163  0.76492678     0.14300
C1853       C  0.87449660  0.60998825  0.73950465    -0.15300
C1854       C  0.88061300  0.64442650  0.76100171    -0.30400
H1855       H  0.84597230  0.60030829  0.73312887     0.13800
H1856       H  0.90913774  0.65411524  0.76736130     0.14300
C1857       C  0.88062818  0.86029622  0.90604843    -0.15300
C1858       C  0.87451363  0.89502325  0.92728995    -0.30400
H1859       H  0.90915613  0.85050417  0.89980160     0.13800
H1860       H  0.84598492  0.90479560  0.93355531     0.14300
C1861       C  0.88059123  0.64490579  0.90606999    -0.15300
C1862       C  0.87446612  0.61050255  0.92759251    -0.30400
H1863       H  0.90911765  0.65457506  0.89969083     0.13800
H1864       H  0.84594008  0.60082472  0.93395750     0.14300
C1865       C  0.63065670  0.89614451  0.92634698    -0.15300
C1866       C  0.62450204  0.85998952  0.90648474    -0.30400
H1867       H  0.65919143  0.90677684  0.93176034     0.13800
H1868       H  0.59596791  0.84934380  0.90109720     0.14300
C1869       C  0.87447317  0.89467099  0.73928358    -0.15300
C1870       C  0.88060696  0.85999671  0.76057118    -0.30400
H1871       H  0.84594180  0.90444173  0.73302969     0.13800
H1872       H  0.90913934  0.85024079  0.76683862     0.14300
loop_ 
_geom_bond_atom_site_label_1 
_geom_bond_atom_site_label_2 
_geom_bond_distance 
_geom_bond_site_symmetry_2 
_ccdc_geom_bond_type 
O1          Zr13   2.445       .  S
O1            C3   1.289       .  A
O2         Zr663   2.418       .  S
O2            C3   1.285       .  A
C3          C142   1.476       .  S
O4         Zr952   2.444       .  S
O4            C6   1.289       .  A
O5         Zr352   2.421       .  S
O5            C6   1.285       .  A
C6          C133   1.476       .  S
O7          Zr16   2.443       .  S
O7            C9   1.289       .  A
O8         Zr507   2.419       .  S
O8            C9   1.285       .  A
C9          C153   1.476       .  S
O10        Zr949   2.444       .  S
O10          C12   1.289       .  A
O11         Zr40   2.421       .  S
O11          C12   1.285       .  A
C12         C149   1.476       .  S
Zr13        O946   2.445       .  S
Zr13         O14   2.433       .  S
Zr13        O951   2.437       .  S
Zr13         O19   2.372       .  S
Zr13        O956   2.371       .  S
Zr13        O979   2.374       .  S
Zr13        O513   2.373       .  S
O14          H57   0.990       .  S
O15        Zr949   2.437       .  S
O15         H992   0.990   1_455  S
O15         H996   0.990       .  S
Zr16        O940   2.444       .  S
Zr16         O17   2.435       .  S
Zr16        O954   2.436       .  S
Zr16       O1268   2.370   1_554  S
Zr16        O331   2.371   1_554  S
Zr16        O512   2.373       .  S
Zr16        O982   2.375       .  S
O17          H61   0.990       .  S
O17         H994   0.990       .  S
O18        Zr952   2.436       .  S
O18         H987   0.990   1_455  S
O19        Zr172   2.372       .  S
O19        Zr663   2.376       .  S
O20         Zr40   2.381       .  S
O20        Zr949   2.371       .  S
O20       Zr1108   2.370       .  S
O20         H203   0.966       .  S
O21         Zr33   2.444       .  S
O21          C23   1.289       .  A
O22        Zr508   2.419       .  S
O22          C23   1.285       .  A
C23         C129   1.476       .  S
O24        Zr972   2.444       .  S
O24          C26   1.289       .  A
O25         Zr39   2.418       .  S
O25          C26   1.285       .  A
C26         C137   1.476       .  S
O27         Zr36   2.444       .  S
O27          C29   1.289       .  A
O28        Zr820   2.421       .  S
O28          C29   1.285       .  A
C29         C125   1.476       .  S
O30        Zr969   2.443       .  S
O30          C32   1.289       .  A
O31        Zr195   2.419       .  S
O31          C32   1.285       .  A
C32         C146   1.476       .  S
Zr33        O966   2.442   1_455  S
Zr33         O34   2.436       .  S
Zr33         O35   2.434       .  S
Zr33        O197   2.369       .  S
Zr33       O1134   2.371   1_455  S
Zr33        O981   2.373   1_455  S
Zr33        O511   2.376       .  S
O34          H54   0.990       .  S
O34          H59   0.990       .  S
O35          H55   0.990       .  S
Zr36        O960   2.443   1_455  S
Zr36         O37   2.434       .  S
Zr36         O38   2.435       .  S
Zr36         O41   2.370       .  S
Zr36        O978   2.372   1_455  S
Zr36        O514   2.374       .  S
Zr36        O980   2.371   1_455  S
O37         H989   0.990   1_455  S
O38          H52   0.990       .  S
O38          H62   0.990       .  S
Zr39        O782   2.418   1_544  S
Zr39        O476   2.420   1_545  S
Zr39        O343   2.419   1_554  S
Zr39         O42   2.377       .  S
Zr39         O44   2.384       .  S
Zr39        O799   2.376   1_544  S
Zr39        O357   2.384   1_554  S
Zr40        O161   2.421       .  S
Zr40        O490   2.420       .  S
Zr40        O652   2.421       .  S
Zr40         O43   2.383       .  S
Zr40        O665   2.382       .  S
Zr40        O202   2.383       .  S
O41        Zr345   2.369   1_554  S
O41        Zr820   2.382       .  S
O41         H361   0.966       .  S
O42       Zr1281   2.371   1_554  S
O42        Zr972   2.372       .  S
O43        Zr949   2.374       .  S
O43        Zr501   2.376       .  S
O44        Zr484   2.374   1_545  S
O44        Zr972   2.371       .  S
O44          H48   0.966       .  S
O45        Zr481   2.372   1_545  S
O45        Zr969   2.372       .  S
O45        Zr195   2.384       .  S
O45          H50   0.966       .  S
O46        Zr952   2.375       .  S
O46        Zr504   2.374       .  S
O46        Zr352   2.383       .  S
H47         O332   0.966       .  S
H49         O197   0.966       .  S
H51         O954   0.990       .  S
H53         O973   0.990       .  S
H56         O951   0.990       .  S
H58         O953   0.990       .  S
H60         O951   0.990       .  S
O63         Zr75   2.444       .  S
O63          C65   1.289       .  A
O64        Zr101   2.419       .  S
O64          C65   1.285       .  A
C65         C154   1.476       .  S
O66         Zr78   2.444       .  S
O66          C68   1.289       .  A
O67        Zr102   2.421       .  S
O67          C68   1.285       .  A
C68         C150   1.476       .  S
O69         Zr78   2.443       .  S
O69          C71   1.289       .  A
O70        Zr101   2.420       .  S
O70          C71   1.285       .  A
C71         C141   1.477       .  S
O72         Zr75   2.444       .  S
O72          C74   1.289       .  A
O73        Zr102   2.421       .  S
O73          C74   1.285       .  A
C74         C134   1.476       .  S
Zr75         O76   2.433       .  S
Zr75         O77   2.437       .  S
Zr75         O81   2.372       .  S
Zr75         O82   2.370       .  S
Zr75        O105   2.375       .  S
Zr75        O107   2.373       .  S
O76         H119   0.990       .  S
O77         H118   0.990       .  S
O77         H122   0.990       .  S
Zr78         O79   2.435       .  S
Zr78         O80   2.436       .  S
Zr78         O82   2.370       .  S
Zr78         O81   2.372       .  S
Zr78        O106   2.373       .  S
Zr78        O108   2.375       .  S
O79         H120   0.990       .  S
O79         H123   0.990       .  S
O80         H113   0.990       .  S
O81        Zr101   2.376       .  S
O82        Zr102   2.381       .  S
O82         H109   0.966       .  S
O83         Zr95   2.444       .  S
O83          C85   1.289       .  A
O84        Zr102   2.420       .  S
O84          C85   1.285       .  A
C85         C126   1.476       .  S
O86         Zr98   2.444       .  S
O86          C88   1.289       .  A
O87        Zr101   2.418       .  S
O87          C88   1.284       .  A
C88         C145   1.476       .  S
O89         Zr98   2.444       .  S
O89          C91   1.289       .  A
O90        Zr102   2.420       .  S
O90          C91   1.285       .  A
C91         C130   1.476       .  S
O92         Zr95   2.442       .  S
O92          C94   1.289       .  A
O93        Zr101   2.419       .  S
O93          C94   1.285       .  A
C94         C138   1.476       .  S
Zr95         O96   2.436       .  S
Zr95         O97   2.434       .  S
Zr95        O103   2.369       .  S
Zr95        O104   2.371       .  S
Zr95        O107   2.372       .  S
Zr95        O105   2.375       .  S
O96         H116   0.990       .  S
O96         H121   0.990       .  S
O97         H117   0.990       .  S
Zr98         O99   2.434       .  S
Zr98        O100   2.435       .  S
Zr98        O104   2.372       .  S
Zr98        O103   2.370       .  S
Zr98        O108   2.374       .  S
Zr98        O106   2.371       .  S
O99         H115   0.990       .  S
O100        H114   0.990       .  S
O100        H124   0.990       .  S
Zr101       O104   2.377       .  S
Zr101       O106   2.384       .  S
Zr101       O107   2.384       .  S
Zr102       O103   2.382       .  S
Zr102       O105   2.383       .  S
Zr102       O108   2.383       .  S
O103        H111   0.966       .  S
O106        H110   0.966       .  S
O107        H112   0.966       .  S
C125        C126   1.345       .  D
C125        H127   1.087       .  S
C126        H128   1.087       .  S
C129        C130   1.345       .  D
C129        H131   1.087       .  S
C130        H132   1.087       .  S
C133        C134   1.345       .  D
C133        H135   1.087       .  S
C134        H136   1.087       .  S
C137        C138   1.345       .  D
C137        H139   1.087       .  S
C138        H140   1.087       .  S
C141        C142   1.345       .  D
C141        H143   1.087       .  S
C142        H144   1.087       .  S
C145        C146   1.345       .  D
C145        H147   1.087       .  S
C146        H148   1.087       .  S
C149        C150   1.345       .  D
C149        H151   1.087       .  S
C150        H152   1.087       .  S
C153        C154   1.345       .  D
C153        H155   1.087       .  S
C154        H156   1.087       .  S
O157       Zr169   2.444       .  S
O157        C159   1.289       .  A
O158       Zr819   2.419       .  S
O158        C159   1.285       .  A
C159        C298   1.476       .  S
O160      Zr1108   2.444       .  S
O160        C162   1.289       .  A
O161        C162   1.285       .  A
C162        C289   1.476       .  S
O163       Zr172   2.443       .  S
O163        C165   1.289       .  A
O164       Zr663   2.420       .  S
O164        C165   1.285       .  A
C165        C309   1.476       .  S
O166      Zr1105   2.444       .  S
O166        C168   1.289       .  A
O167       Zr196   2.421       .  S
O167        C168   1.285       .  A
C168        C305   1.476       .  S
Zr169      O1102   2.444       .  S
Zr169       O170   2.433       .  S
Zr169      O1107   2.437       .  S
Zr169       O175   2.372       .  S
Zr169      O1112   2.370       .  S
Zr169      O1135   2.374       .  S
Zr169       O669   2.373       .  S
O170        H213   0.990       .  S
O171      Zr1105   2.437       .  S
O171       H1148   0.990   1_455  S
O171       H1152   0.990       .  S
Zr172      O1096   2.444       .  S
Zr172       O173   2.435       .  S
Zr172      O1110   2.436       .  S
Zr172       O956   2.370       .  S
Zr172       O668   2.373       .  S
Zr172      O1138   2.375       .  S
O173       H1150   0.990       .  S
O173        H217   0.990       .  S
O174      Zr1108   2.436       .  S
O174       H1143   0.990   1_455  S
O175       Zr328   2.372       .  S
O175       Zr819   2.376       .  S
O176      Zr1105   2.371       .  S
O176      Zr1264   2.370       .  S
O176       Zr196   2.381       .  S
O176        H359   0.966       .  S
O177       Zr189   2.445       .  S
O177        C179   1.289       .  A
O178       Zr664   2.420       .  S
O178        C179   1.285       .  A
C179        C285   1.476       .  S
O180      Zr1128   2.443       .  S
O180        C182   1.289       .  A
O181       Zr195   2.419       .  S
O181        C182   1.285       .  A
C182        C293   1.476       .  S
O183       Zr192   2.444       .  S
O183        C185   1.289       .  A
O184       Zr508   2.422       .  S
O184        C185   1.285       .  A
C185        C281   1.476       .  S
O186      Zr1125   2.443       .  S
O186        C188   1.289       .  A
O187       Zr351   2.419       .  S
O187        C188   1.285       .  A
C188        C302   1.476       .  S
Zr189      O1122   2.443   1_455  S
Zr189       O190   2.436       .  S
Zr189       O191   2.434       .  S
Zr189       O353   2.369       .  S
Zr189      O1290   2.372   1_455  S
Zr189      O1137   2.373   1_455  S
Zr189       O667   2.375       .  S
O190        H210   0.990       .  S
O190        H215   0.990       .  S
O191        H211   0.990       .  S
Zr192      O1116   2.444   1_455  S
Zr192       O193   2.434       .  S
Zr192       O194   2.435       .  S
Zr192      O1134   2.372   1_455  S
Zr192       O197   2.370       .  S
Zr192       O670   2.374       .  S
Zr192      O1136   2.371   1_455  S
O193       H1145   0.990   1_455  S
O194        H208   0.990       .  S
O194        H218   0.990       .  S
Zr195       O470   2.419   1_545  S
Zr195       O632   2.419   1_545  S
Zr195       O487   2.376   1_545  S
Zr195       O198   2.377       .  S
Zr195       O200   2.384       .  S
Zr196       O317   2.421       .  S
Zr196       O646   2.421       .  S
Zr196       O808   2.421       .  S
Zr196       O821   2.382       .  S
Zr196       O199   2.383       .  S
Zr196       O358   2.383       .  S
O197       Zr508   2.382       .  S
O198       Zr969   2.372       .  S
O198      Zr1128   2.372       .  S
O199      Zr1105   2.374       .  S
O199       Zr657   2.376       .  S
O200       Zr640   2.374   1_545  S
O200      Zr1128   2.371       .  S
O200        H204   0.966       .  S
O201       Zr637   2.373   1_545  S
O201      Zr1125   2.373       .  S
O201       Zr351   2.385       .  S
O201        H206   0.966       .  S
O202      Zr1108   2.375       .  S
O202       Zr660   2.375       .  S
H205        O353   0.966       .  S
H207       O1110   0.990       .  S
H209       O1129   0.990       .  S
H212       O1107   0.990       .  S
H214       O1109   0.990       .  S
H216       O1107   0.990       .  S
O219       Zr231   2.444       .  S
O219        C221   1.289       .  A
O220       Zr257   2.419       .  S
O220        C221   1.285       .  A
C221        C310   1.476       .  S
O222       Zr234   2.444       .  S
O222        C224   1.289       .  A
O223       Zr258   2.421       .  S
O223        C224   1.285       .  A
C224        C306   1.476       .  S
O225       Zr234   2.442       .  S
O225        C227   1.289       .  A
O226       Zr257   2.419       .  S
O226        C227   1.285       .  A
C227        C297   1.476       .  S
O228       Zr231   2.444       .  S
O228        C230   1.289       .  A
O229       Zr258   2.421       .  S
O229        C230   1.285       .  A
C230        C290   1.476       .  S
Zr231       O232   2.433       .  S
Zr231       O233   2.437       .  S
Zr231       O237   2.372       .  S
Zr231       O238   2.371       .  S
Zr231       O261   2.375       .  S
Zr231       O263   2.372       .  S
O232        H275   0.990       .  S
O233        H274   0.990       .  S
O233        H278   0.990       .  S
Zr234       O235   2.436       .  S
Zr234       O236   2.436       .  S
Zr234       O238   2.370       .  S
Zr234       O237   2.372       .  S
Zr234       O262   2.374       .  S
Zr234       O264   2.375       .  S
O235        H276   0.990       .  S
O235        H279   0.990       .  S
O236        H269   0.990       .  S
O237       Zr257   2.377       .  S
O238       Zr258   2.382       .  S
O238        H265   0.966       .  S
O239       Zr251   2.445       .  S
O239        C241   1.289       .  A
O240       Zr258   2.420       .  S
O240        C241   1.285       .  A
C241        C282   1.476       .  S
O242       Zr254   2.443       .  S
O242        C244   1.289       .  A
O243       Zr257   2.419       .  S
O243        C244   1.285       .  A
C244        C301   1.476       .  S
O245       Zr254   2.444       .  S
O245        C247   1.289       .  A
O246       Zr258   2.421       .  S
O246        C247   1.285       .  A
C247        C286   1.476       .  S
O248       Zr251   2.442       .  S
O248        C250   1.289       .  A
O249       Zr257   2.419       .  S
O249        C250   1.285       .  A
C250        C294   1.476       .  S
Zr251       O252   2.435       .  S
Zr251       O253   2.434       .  S
Zr251       O259   2.369       .  S
Zr251       O260   2.372       .  S
Zr251       O263   2.372       .  S
Zr251       O261   2.375       .  S
O252        H272   0.990       .  S
O252        H277   0.990       .  S
O253        H273   0.990       .  S
Zr254       O255   2.434       .  S
Zr254       O256   2.435       .  S
Zr254       O260   2.372       .  S
Zr254       O259   2.370       .  S
Zr254       O264   2.374       .  S
Zr254       O262   2.371       .  S
O255        H271   0.990       .  S
O256        H270   0.990       .  S
O256        H280   0.990       .  S
Zr257       O260   2.376       .  S
Zr257       O262   2.384       .  S
Zr257       O263   2.384       .  S
Zr258       O259   2.382       .  S
Zr258       O261   2.383       .  S
Zr258       O264   2.383       .  S
O259        H267   0.966       .  S
O262        H266   0.966       .  S
O263        H268   0.966       .  S
C281        C282   1.345       .  D
C281        H283   1.087       .  S
C282        H284   1.087       .  S
C285        C286   1.345       .  D
C285        H287   1.087       .  S
C286        H288   1.087       .  S
C289        C290   1.345       .  D
C289        H291   1.087       .  S
C290        H292   1.087       .  S
C293        C294   1.345       .  D
C293        H295   1.087       .  S
C294        H296   1.087       .  S
C297        C298   1.345       .  D
C297        H299   1.087       .  S
C298        H300   1.087       .  S
C301        C302   1.345       .  D
C301        H303   1.087       .  S
C302        H304   1.087       .  S
C305        C306   1.345       .  D
C305        H307   1.087       .  S
C306        H308   1.087       .  S
C309        C310   1.345       .  D
C309        H311   1.087       .  S
C310        H312   1.087       .  S
O313       Zr325   2.444       .  S
O313        C315   1.289       .  A
O314       Zr507   2.419   1_556  S
O314        C315   1.285       .  A
C315        C454   1.477       .  S
O316      Zr1264   2.444       .  S
O316        C318   1.289       .  A
O317        C318   1.285       .  A
C318        C445   1.476       .  S
O319       Zr328   2.443       .  S
O319        C321   1.289       .  A
O320       Zr819   2.420       .  S
O320        C321   1.285       .  A
C321        C465   1.477       .  S
O322      Zr1261   2.445       .  S
O322        C324   1.289       .  A
O323       Zr352   2.422   1_556  S
O323        C324   1.285       .  A
C324        C461   1.477       .  S
Zr325      O1258   2.445       .  S
Zr325       O326   2.433       .  S
Zr325      O1263   2.437       .  S
Zr325       O331   2.372       .  S
Zr325      O1268   2.371       .  S
Zr325      O1291   2.374       .  S
Zr325       O825   2.373       .  S
O326        H369   0.990       .  S
O327      Zr1261   2.437       .  S
O327       H1304   0.990   1_455  S
O327       H1308   0.990       .  S
Zr328      O1252   2.443       .  S
Zr328       O329   2.436       .  S
Zr328      O1266   2.436       .  S
Zr328      O1112   2.370       .  S
Zr328       O824   2.374       .  S
Zr328      O1294   2.375       .  S
O329       H1306   0.990       .  S
O329        H373   0.990       .  S
O330      Zr1264   2.436       .  S
O330       H1299   0.990   1_455  S
O331       Zr507   2.376   1_556  S
O332      Zr1261   2.370       .  S
O332       Zr952   2.370   1_556  S
O332       Zr352   2.381   1_556  S
O333       Zr345   2.445       .  S
O333        C335   1.289       .  A
O334       Zr820   2.420   1_556  S
O334        C335   1.285       .  A
C335        C441   1.476       .  S
O336      Zr1284   2.443       .  S
O336        C338   1.289       .  A
O337       Zr351   2.419       .  S
O337        C338   1.285       .  A
C338        C449   1.476       .  S
O339       Zr348   2.444       .  S
O339        C341   1.289       .  A
O340       Zr664   2.421       .  S
O340        C341   1.285       .  A
C341        C437   1.476       .  S
O342      Zr1281   2.442       .  S
O342        C344   1.289       .  A
O343        C344   1.285       .  A
C344        C458   1.476       .  S
Zr345      O1278   2.443   1_455  S
Zr345       O346   2.436       .  S
Zr345       O347   2.434       .  S
Zr345       O978   2.371   1_456  S
Zr345      O1293   2.372   1_455  S
Zr345       O823   2.375       .  S
O346        H366   0.990       .  S
O346        H371   0.990       .  S
O347        H367   0.990       .  S
Zr348      O1272   2.443   1_455  S
Zr348       O349   2.433       .  S
Zr348       O350   2.435       .  S
Zr348      O1290   2.372   1_455  S
Zr348       O353   2.370       .  S
Zr348       O826   2.374       .  S
Zr348      O1292   2.371   1_455  S
O349       H1301   0.990       .  S
O350        H364   0.990       .  S
O350        H374   0.990       .  S
Zr351       O626   2.419   1_545  S
Zr351       O788   2.420   1_545  S
Zr351       O643   2.376   1_545  S
Zr351       O354   2.377       .  S
Zr351       O356   2.384       .  S
Zr352       O802   2.420   1_554  S
Zr352       O496   2.420       .  S
Zr352       O509   2.382       .  S
Zr352       O355   2.383   1_554  S
O353       Zr664   2.382       .  S
O354      Zr1125   2.371       .  S
O354      Zr1284   2.372       .  S
O355      Zr1261   2.374       .  S
O355       Zr813   2.376       .  S
O356       Zr796   2.374   1_545  S
O356      Zr1284   2.371       .  S
O356        H360   0.966       .  S
O357       Zr793   2.372   1_545  S
O357      Zr1281   2.372       .  S
O357        H362   0.966       .  S
O358      Zr1264   2.375       .  S
O358       Zr816   2.375       .  S
H363       O1266   0.990       .  S
H365       O1285   0.990       .  S
H368       O1263   0.990       .  S
H370       O1265   0.990       .  S
H372       O1263   0.990       .  S
O375       Zr387   2.444       .  S
O375        C377   1.289       .  A
O376       Zr413   2.419       .  S
O376        C377   1.285       .  A
C377        C466   1.476       .  S
O378       Zr390   2.444       .  S
O378        C380   1.289       .  A
O379       Zr414   2.422       .  S
O379        C380   1.285       .  A
C380        C462   1.477       .  S
O381       Zr390   2.443       .  S
O381        C383   1.289       .  A
O382       Zr413   2.420       .  S
O382        C383   1.285       .  A
C383        C453   1.477       .  S
O384       Zr387   2.444       .  S
O384        C386   1.289       .  A
O385       Zr414   2.421       .  S
O385        C386   1.285       .  A
C386        C446   1.476       .  S
Zr387       O388   2.433       .  S
Zr387       O389   2.437       .  S
Zr387       O393   2.372       .  S
Zr387       O394   2.371       .  S
Zr387       O417   2.374       .  S
Zr387       O419   2.373       .  S
O388        H431   0.990       .  S
O389        H430   0.990       .  S
O389        H434   0.990       .  S
Zr390       O391   2.436       .  S
Zr390       O392   2.436       .  S
Zr390       O394   2.370       .  S
Zr390       O393   2.372       .  S
Zr390       O418   2.374       .  S
Zr390       O420   2.375       .  S
O391        H432   0.990       .  S
O391        H435   0.990       .  S
O392        H425   0.990       .  S
O393       Zr413   2.377       .  S
O394       Zr414   2.382       .  S
O394        H421   0.966       .  S
O395       Zr407   2.445       .  S
O395        C397   1.289       .  A
O396       Zr414   2.420       .  S
O396        C397   1.285       .  A
C397        C438   1.476       .  S
O398       Zr410   2.443       .  S
O398        C400   1.289       .  A
O399       Zr413   2.419       .  S
O399        C400   1.285       .  A
C400        C457   1.476       .  S
O401       Zr410   2.444       .  S
O401        C403   1.289       .  A
O402       Zr414   2.422       .  S
O402        C403   1.285       .  A
C403        C442   1.476       .  S
O404       Zr407   2.442       .  S
O404        C406   1.289       .  A
O405       Zr413   2.419       .  S
O405        C406   1.285       .  A
C406        C450   1.476       .  S
Zr407       O408   2.436       .  S
Zr407       O409   2.434       .  S
Zr407       O415   2.369       .  S
Zr407       O416   2.371       .  S
Zr407       O419   2.372       .  S
Zr407       O417   2.375       .  S
O408        H428   0.990       .  S
O408        H433   0.990       .  S
O409        H429   0.990       .  S
Zr410       O411   2.434       .  S
Zr410       O412   2.435       .  S
Zr410       O416   2.372       .  S
Zr410       O415   2.370       .  S
Zr410       O420   2.375       .  S
Zr410       O418   2.371       .  S
O411        H427   0.990       .  S
O412        H426   0.990       .  S
O412        H436   0.990       .  S
Zr413       O416   2.377       .  S
Zr413       O418   2.384       .  S
Zr413       O419   2.384       .  S
Zr414       O415   2.382       .  S
Zr414       O417   2.384       .  S
Zr414       O420   2.383       .  S
O415        H423   0.966       .  S
O418        H422   0.966       .  S
O419        H424   0.966       .  S
C437        C438   1.345       .  D
C437        H439   1.087       .  S
C438        H440   1.087       .  S
C441        C442   1.345       .  D
C441        H443   1.087       .  S
C442        H444   1.087       .  S
C445        C446   1.345       .  D
C445        H447   1.087       .  S
C446        H448   1.087       .  S
C449        C450   1.345       .  D
C449        H451   1.087       .  S
C450        H452   1.087       .  S
C453        C454   1.345       .  D
C453        H455   1.087       .  S
C454        H456   1.087       .  S
C457        C458   1.345       .  D
C457        H459   1.087       .  S
C458        H460   1.087       .  S
C461        C462   1.346       .  D
C461        H463   1.087       .  S
C462        H464   1.087       .  S
C465        C466   1.345       .  D
C465        H467   1.087       .  S
C466        H468   1.087       .  S
O469       Zr481   2.445       .  S
O469        C471   1.289       .  A
O470        C471   1.285       .  A
C471        C610   1.477       .  S
O472      Zr1420   2.444       .  S
O472        C474   1.289       .  A
O473       Zr820   2.421   1_565  S
O473        C474   1.285       .  A
C474        C601   1.476       .  S
O475       Zr484   2.443       .  S
O475        C477   1.289       .  A
O476        C477   1.285       .  A
C477        C621   1.477       .  S
O478      Zr1417   2.445       .  S
O478        C480   1.289       .  A
O479       Zr508   2.422   1_565  S
O479        C480   1.285       .  A
C480        C617   1.476       .  S
Zr481      O1414   2.444       .  S
Zr481       O482   2.433       .  S
Zr481      O1419   2.437       .  S
Zr481       O487   2.372       .  S
Zr481      O1424   2.371       .  S
Zr481      O1447   2.374   1_565  S
O482        H525   0.990       .  S
O483      Zr1417   2.437       .  S
O483       H1460   0.990   1_455  S
O483       H1464   0.990       .  S
Zr484      O1408   2.444       .  S
Zr484       O485   2.435       .  S
Zr484      O1422   2.436       .  S
Zr484      O1736   2.370   1_554  S
Zr484       O799   2.372   1_554  S
Zr484      O1450   2.375   1_565  S
O485       H1462   0.990       .  S
O485        H529   0.990       .  S
O486      Zr1420   2.436       .  S
O486       H1455   0.990   1_455  S
O487       Zr640   2.372       .  S
O488      Zr1417   2.371       .  S
O488      Zr1576   2.370       .  S
O488       Zr508   2.381   1_565  S
O488        H671   0.966       .  S
O489       Zr501   2.444       .  S
O489        C491   1.289       .  A
O490        C491   1.285       .  A
C491        C597   1.476       .  S
O492      Zr1440   2.443       .  S
O492        C494   1.289       .  A
O493       Zr507   2.419       .  S
O493        C494   1.285       .  A
C494        C605   1.476       .  S
O495       Zr504   2.444       .  S
O495        C497   1.289       .  A
O496        C497   1.285       .  A
C497        C593   1.476       .  S
O498      Zr1437   2.443       .  S
O498        C500   1.289       .  A
O499       Zr663   2.419       .  S
O499        C500   1.285       .  A
C500        C614   1.476       .  S
Zr501      O1434   2.443   1_455  S
Zr501       O502   2.435       .  S
Zr501       O503   2.434       .  S
Zr501       O665   2.369       .  S
Zr501      O1602   2.371   1_455  S
Zr501      O1449   2.372   1_455  S
O502        H522   0.990       .  S
O502        H527   0.990       .  S
O503        H523   0.990       .  S
Zr504      O1428   2.443   1_455  S
Zr504       O505   2.434       .  S
Zr504       O506   2.435       .  S
Zr504      O1446   2.372   1_455  S
Zr504       O509   2.370       .  S
Zr504      O1448   2.371   1_455  S
O505       H1457   0.990       .  S
O506        H520   0.990       .  S
O506        H530   0.990       .  S
Zr507       O811   2.420   1_554  S
Zr507       O510   2.376       .  S
Zr507       O512   2.384       .  S
Zr507       O825   2.384   1_554  S
Zr508       O629   2.421   1_545  S
Zr508       O511   2.384       .  S
Zr508       O670   2.383       .  S
O509       Zr813   2.369   1_554  S
O509        H829   0.966       .  S
O510      Zr1749   2.371   1_554  S
O510      Zr1440   2.372       .  S
O511      Zr1417   2.374   1_545  S
O512      Zr1440   2.371       .  S
O512        H516   0.966       .  S
O513      Zr1437   2.373       .  S
O513       Zr663   2.385       .  S
O513        H518   0.966       .  S
O514      Zr1420   2.375   1_545  S
O514       Zr820   2.383       .  S
H515        O800   0.966       .  S
H517        O665   0.966       .  S
H519       O1422   0.990       .  S
H521       O1441   0.990       .  S
H524       O1419   0.990       .  S
H526       O1421   0.990       .  S
H528       O1419   0.990       .  S
O531       Zr543   2.444       .  S
O531        C533   1.289       .  A
O532       Zr569   2.419       .  S
O532        C533   1.285       .  A
C533        C622   1.476       .  S
O534       Zr546   2.444       .  S
O534        C536   1.289       .  A
O535       Zr570   2.422       .  S
O535        C536   1.285       .  A
C536        C618   1.476       .  S
O537       Zr546   2.443       .  S
O537        C539   1.289       .  A
O538       Zr569   2.421       .  S
O538        C539   1.285       .  A
C539        C609   1.477       .  S
O540       Zr543   2.445       .  S
O540        C542   1.289       .  A
O541       Zr570   2.420       .  S
O541        C542   1.285       .  A
C542        C602   1.476       .  S
Zr543       O544   2.433       .  S
Zr543       O545   2.437       .  S
Zr543       O549   2.372       .  S
Zr543       O550   2.371       .  S
Zr543       O573   2.374       .  S
Zr543       O575   2.373       .  S
O544        H587   0.990       .  S
O545        H586   0.990       .  S
O545        H590   0.990       .  S
Zr546       O547   2.436       .  S
Zr546       O548   2.436       .  S
Zr546       O550   2.370       .  S
Zr546       O549   2.372       .  S
Zr546       O574   2.373       .  S
Zr546       O576   2.375       .  S
O547        H588   0.990       .  S
O547        H591   0.990       .  S
O548        H581   0.990       .  S
O549       Zr569   2.376       .  S
O550       Zr570   2.381       .  S
O550        H577   0.966       .  S
O551       Zr563   2.444       .  S
O551        C553   1.289       .  A
O552       Zr570   2.420       .  S
O552        C553   1.285       .  A
C553        C594   1.476       .  S
O554       Zr566   2.443       .  S
O554        C556   1.289       .  A
O555       Zr569   2.418       .  S
O555        C556   1.285       .  A
C556        C613   1.476       .  S
O557       Zr566   2.444       .  S
O557        C559   1.289       .  A
O558       Zr570   2.421       .  S
O558        C559   1.285       .  A
C559        C598   1.476       .  S
O560       Zr563   2.443       .  S
O560        C562   1.289       .  A
O561       Zr569   2.419       .  S
O561        C562   1.285       .  A
C562        C606   1.476       .  S
Zr563       O564   2.436       .  S
Zr563       O565   2.434       .  S
Zr563       O571   2.369       .  S
Zr563       O572   2.371       .  S
Zr563       O575   2.373       .  S
Zr563       O573   2.376       .  S
O564        H584   0.990       .  S
O564        H589   0.990       .  S
O565        H585   0.990       .  S
Zr566       O567   2.434       .  S
Zr566       O568   2.435       .  S
Zr566       O572   2.371       .  S
Zr566       O571   2.369       .  S
Zr566       O576   2.375       .  S
Zr566       O574   2.372       .  S
O567        H583   0.990       .  S
O568        H582   0.990       .  S
O568        H592   0.990       .  S
Zr569       O572   2.376       .  S
Zr569       O574   2.384       .  S
Zr569       O575   2.385       .  S
Zr570       O571   2.382       .  S
Zr570       O573   2.383       .  S
Zr570       O576   2.383       .  S
O571        H579   0.966       .  S
O574        H578   0.966       .  S
O575        H580   0.966       .  S
C593        C594   1.345       .  D
C593        H595   1.087       .  S
C594        H596   1.087       .  S
C597        C598   1.345       .  D
C597        H599   1.087       .  S
C598        H600   1.087       .  S
C601        C602   1.345       .  D
C601        H603   1.087       .  S
C602        H604   1.087       .  S
C605        C606   1.345       .  D
C605        H607   1.087       .  S
C606        H608   1.087       .  S
C609        C610   1.345       .  D
C609        H611   1.087       .  S
C610        H612   1.087       .  S
C613        C614   1.345       .  D
C613        H615   1.087       .  S
C614        H616   1.087       .  S
C617        C618   1.345       .  D
C617        H619   1.087       .  S
C618        H620   1.087       .  S
C621        C622   1.345       .  D
C621        H623   1.087       .  S
C622        H624   1.087       .  S
O625       Zr637   2.444       .  S
O625        C627   1.289       .  A
O626        C627   1.285       .  A
C627        C766   1.476       .  S
O628      Zr1576   2.444       .  S
O628        C630   1.289       .  A
O629        C630   1.285       .  A
C630        C757   1.476       .  S
O631       Zr640   2.442       .  S
O631        C633   1.289       .  A
O632        C633   1.285       .  A
C633        C777   1.476       .  S
O634      Zr1573   2.445       .  S
O634        C636   1.289       .  A
O635       Zr664   2.421   1_565  S
O635        C636   1.285       .  A
C636        C773   1.476       .  S
Zr637      O1570   2.444       .  S
Zr637       O638   2.433       .  S
Zr637      O1575   2.437       .  S
Zr637       O643   2.372       .  S
Zr637      O1580   2.371       .  S
Zr637      O1603   2.374   1_565  S
O638        H681   0.990       .  S
O639      Zr1573   2.437       .  S
O639       H1616   0.990   1_455  S
O639       H1620   0.990       .  S
Zr640      O1564   2.444       .  S
Zr640       O641   2.435       .  S
Zr640      O1578   2.436       .  S
Zr640      O1424   2.370       .  S
Zr640      O1606   2.375   1_565  S
O641       H1618   0.990       .  S
O641        H685   0.990       .  S
O642      Zr1576   2.436       .  S
O642       H1611   0.990   1_455  S
O643       Zr796   2.372       .  S
O644      Zr1573   2.370       .  S
O644      Zr1732   2.370       .  S
O644       Zr664   2.382   1_565  S
O644        H827   0.966       .  S
O645       Zr657   2.444       .  S
O645        C647   1.289       .  A
O646        C647   1.285       .  A
C647        C753   1.476       .  S
O648      Zr1596   2.444       .  S
O648        C650   1.289       .  A
O649       Zr663   2.419       .  S
O649        C650   1.285       .  A
C650        C761   1.476       .  S
O651       Zr660   2.444       .  S
O651        C653   1.289       .  A
O652        C653   1.285       .  A
C653        C749   1.476       .  S
O654      Zr1593   2.442       .  S
O654        C656   1.289       .  A
O655       Zr819   2.420       .  S
O655        C656   1.285       .  A
C656        C770   1.476       .  S
Zr657      O1590   2.443   1_455  S
Zr657       O658   2.435       .  S
Zr657       O659   2.434       .  S
Zr657       O821   2.369       .  S
Zr657      O1758   2.371   1_455  S
Zr657      O1605   2.372   1_455  S
O658        H678   0.990       .  S
O658        H683   0.990       .  S
O659        H679   0.990       .  S
Zr660      O1584   2.443   1_455  S
Zr660       O661   2.434       .  S
Zr660       O662   2.435       .  S
Zr660      O1602   2.372   1_455  S
Zr660       O665   2.370       .  S
Zr660      O1604   2.371   1_455  S
O661       H1613   0.990       .  S
O662        H676   0.990       .  S
O662        H686   0.990       .  S
Zr663       O666   2.376       .  S
Zr663       O668   2.384       .  S
Zr664       O785   2.421   1_545  S
Zr664       O667   2.383       .  S
Zr664       O826   2.383       .  S
O666      Zr1437   2.371       .  S
O666      Zr1596   2.372       .  S
O667      Zr1573   2.374   1_545  S
O668      Zr1596   2.371       .  S
O668        H672   0.966       .  S
O669      Zr1593   2.373       .  S
O669       Zr819   2.385       .  S
O669        H674   0.966       .  S
O670      Zr1576   2.375   1_545  S
H673        O821   0.966       .  S
H675       O1578   0.990       .  S
H677       O1597   0.990       .  S
H680       O1575   0.990       .  S
H682       O1577   0.990       .  S
H684       O1575   0.990       .  S
O687       Zr699   2.444       .  S
O687        C689   1.289       .  A
O688       Zr725   2.418       .  S
O688        C689   1.285       .  A
C689        C778   1.476       .  S
O690       Zr702   2.445       .  S
O690        C692   1.289       .  A
O691       Zr726   2.420       .  S
O691        C692   1.285       .  A
C692        C774   1.476       .  S
O693       Zr702   2.442       .  S
O693        C695   1.289       .  A
O694       Zr725   2.420       .  S
O694        C695   1.285       .  A
C695        C765   1.476       .  S
O696       Zr699   2.445       .  S
O696        C698   1.289       .  A
O697       Zr726   2.421       .  S
O697        C698   1.285       .  A
C698        C758   1.476       .  S
Zr699       O700   2.433       .  S
Zr699       O701   2.437       .  S
Zr699       O705   2.372       .  S
Zr699       O706   2.371       .  S
Zr699       O729   2.374       .  S
Zr699       O731   2.373       .  S
O700        H743   0.990       .  S
O701        H742   0.990       .  S
O701        H746   0.990       .  S
Zr702       O703   2.436       .  S
Zr702       O704   2.436       .  S
Zr702       O706   2.370       .  S
Zr702       O705   2.372       .  S
Zr702       O730   2.374       .  S
Zr702       O732   2.375       .  S
O703        H744   0.990       .  S
O703        H747   0.990       .  S
O704        H737   0.990       .  S
O705       Zr725   2.376       .  S
O706       Zr726   2.382       .  S
O706        H733   0.966       .  S
O707       Zr719   2.444       .  S
O707        C709   1.289       .  A
O708       Zr726   2.420       .  S
O708        C709   1.285       .  A
C709        C750   1.476       .  S
O710       Zr722   2.443       .  S
O710        C712   1.289       .  A
O711       Zr725   2.419       .  S
O711        C712   1.285       .  A
C712        C769   1.476       .  S
O713       Zr722   2.445       .  S
O713        C715   1.289       .  A
O714       Zr726   2.421       .  S
O714        C715   1.285       .  A
C715        C754   1.476       .  S
O716       Zr719   2.442       .  S
O716        C718   1.289       .  A
O717       Zr725   2.419       .  S
O717        C718   1.285       .  A
C718        C762   1.476       .  S
Zr719       O720   2.435       .  S
Zr719       O721   2.434       .  S
Zr719       O727   2.369       .  S
Zr719       O728   2.371       .  S
Zr719       O731   2.372       .  S
Zr719       O729   2.375       .  S
O720        H740   0.990       .  S
O720        H745   0.990       .  S
O721        H741   0.990       .  S
Zr722       O723   2.434       .  S
Zr722       O724   2.435       .  S
Zr722       O728   2.372       .  S
Zr722       O727   2.369       .  S
Zr722       O732   2.375       .  S
Zr722       O730   2.372       .  S
O723        H739   0.990       .  S
O724        H738   0.990       .  S
O724        H748   0.990       .  S
Zr725       O728   2.376       .  S
Zr725       O730   2.384       .  S
Zr725       O731   2.384       .  S
Zr726       O727   2.381       .  S
Zr726       O729   2.383       .  S
Zr726       O732   2.383       .  S
O727        H735   0.966       .  S
O730        H734   0.966       .  S
O731        H736   0.966       .  S
C749        C750   1.345       .  D
C749        H751   1.087       .  S
C750        H752   1.087       .  S
C753        C754   1.345       .  D
C753        H755   1.087       .  S
C754        H756   1.087       .  S
C757        C758   1.345       .  D
C757        H759   1.087       .  S
C758        H760   1.087       .  S
C761        C762   1.345       .  D
C761        H763   1.087       .  S
C762        H764   1.087       .  S
C765        C766   1.345       .  D
C765        H767   1.087       .  S
C766        H768   1.087       .  S
C769        C770   1.345       .  D
C769        H771   1.087       .  S
C770        H772   1.087       .  S
C773        C774   1.345       .  D
C773        H775   1.087       .  S
C774        H776   1.087       .  S
C777        C778   1.345       .  D
C777        H779   1.087       .  S
C778        H780   1.087       .  S
O781       Zr793   2.444       .  S
O781        C783   1.289       .  A
O782        C783   1.285       .  A
C783        C922   1.476       .  S
O784      Zr1732   2.444       .  S
O784        C786   1.289       .  A
O785        C786   1.285       .  A
C786        C913   1.476       .  S
O787       Zr796   2.443       .  S
O787        C789   1.289       .  A
O788        C789   1.285       .  A
C789        C933   1.476       .  S
O790      Zr1729   2.444       .  S
O790        C792   1.289       .  A
O791       Zr820   2.422   1_566  S
O791        C792   1.285       .  A
C792        C929   1.476       .  S
Zr793      O1726   2.445       .  S
Zr793       O794   2.433       .  S
Zr793      O1731   2.437       .  S
Zr793       O799   2.372       .  S
Zr793      O1736   2.371       .  S
Zr793      O1759   2.374   1_565  S
O794        H837   0.990       .  S
O795      Zr1729   2.437       .  S
O795       H1772   0.990   1_455  S
O795       H1776   0.990       .  S
Zr796      O1720   2.444       .  S
Zr796       O797   2.436       .  S
Zr796      O1734   2.436       .  S
Zr796      O1580   2.370       .  S
Zr796      O1762   2.375   1_565  S
O797       H1774   0.990       .  S
O797        H841   0.990       .  S
O798      Zr1732   2.436       .  S
O798       H1767   0.990   1_455  S
O800      Zr1729   2.370       .  S
O800      Zr1420   2.370   1_556  S
O800       Zr820   2.381   1_566  S
O801       Zr813   2.444       .  S
O801        C803   1.289       .  A
O802        C803   1.285       .  A
C803        C909   1.476       .  S
O804      Zr1752   2.443       .  S
O804        C806   1.289       .  A
O805       Zr819   2.419       .  S
O805        C806   1.285       .  A
C806        C917   1.476       .  S
O807       Zr816   2.444       .  S
O807        C809   1.289       .  A
O808        C809   1.285       .  A
C809        C905   1.476       .  S
O810      Zr1749   2.442       .  S
O810        C812   1.289       .  A
O811        C812   1.285       .  A
C812        C926   1.476       .  S
Zr813      O1746   2.442   1_455  S
Zr813       O814   2.435       .  S
Zr813       O815   2.434       .  S
Zr813      O1446   2.371   1_456  S
Zr813      O1761   2.373   1_455  S
O814        H834   0.990       .  S
O814        H839   0.990       .  S
O815        H835   0.990       .  S
Zr816      O1740   2.443   1_455  S
Zr816       O817   2.434       .  S
Zr816       O818   2.435       .  S
Zr816      O1758   2.372   1_455  S
Zr816       O821   2.370       .  S
Zr816      O1760   2.371   1_455  S
O817       H1769   0.990       .  S
O818        H832   0.990       .  S
O818        H842   0.990       .  S
Zr819       O822   2.377       .  S
Zr819       O824   2.384       .  S
Zr820       O823   2.383   1_554  S
O822      Zr1593   2.372       .  S
O822      Zr1752   2.372       .  S
O823      Zr1729   2.374   1_545  S
O824      Zr1752   2.371       .  S
O824        H828   0.966       .  S
O825      Zr1749   2.372       .  S
O825        H830   0.966       .  S
O826      Zr1732   2.375   1_545  S
H831       O1734   0.990       .  S
H833       O1753   0.990       .  S
H836       O1731   0.990       .  S
H838       O1733   0.990       .  S
H840       O1731   0.990       .  S
O843       Zr855   2.444       .  S
O843        C845   1.289       .  A
O844       Zr881   2.419       .  S
O844        C845   1.285       .  A
C845        C934   1.476       .  S
O846       Zr858   2.444       .  S
O846        C848   1.289       .  A
O847       Zr882   2.421       .  S
O847        C848   1.285       .  A
C848        C930   1.476       .  S
O849       Zr858   2.443       .  S
O849        C851   1.289       .  A
O850       Zr881   2.420       .  S
O850        C851   1.285       .  A
C851        C921   1.476       .  S
O852       Zr855   2.444       .  S
O852        C854   1.289       .  A
O853       Zr882   2.422       .  S
O853        C854   1.285       .  A
C854        C914   1.476       .  S
Zr855       O856   2.433       .  S
Zr855       O857   2.437       .  S
Zr855       O861   2.372       .  S
Zr855       O862   2.371       .  S
Zr855       O885   2.374       .  S
Zr855       O887   2.373       .  S
O856        H899   0.990       .  S
O857        H898   0.990       .  S
O857        H902   0.990       .  S
Zr858       O859   2.436       .  S
Zr858       O860   2.436       .  S
Zr858       O862   2.370       .  S
Zr858       O861   2.372       .  S
Zr858       O886   2.374       .  S
Zr858       O888   2.375       .  S
O859        H900   0.990       .  S
O859        H903   0.990       .  S
O860        H893   0.990       .  S
O861       Zr881   2.376       .  S
O862       Zr882   2.381       .  S
O862        H889   0.966       .  S
O863       Zr875   2.445       .  S
O863        C865   1.289       .  A
O864       Zr882   2.420       .  S
O864        C865   1.285       .  A
C865        C906   1.476       .  S
O866       Zr878   2.443       .  S
O866        C868   1.289       .  A
O867       Zr881   2.419       .  S
O867        C868   1.285       .  A
C868        C925   1.476       .  S
O869       Zr878   2.444       .  S
O869        C871   1.289       .  A
O870       Zr882   2.421       .  S
O870        C871   1.285       .  A
C871        C910   1.476       .  S
O872       Zr875   2.443       .  S
O872        C874   1.289       .  A
O873       Zr881   2.419       .  S
O873        C874   1.285       .  A
C874        C918   1.476       .  S
Zr875       O876   2.435       .  S
Zr875       O877   2.434       .  S
Zr875       O883   2.369       .  S
Zr875       O884   2.371       .  S
Zr875       O887   2.372       .  S
Zr875       O885   2.375       .  S
O876        H896   0.990       .  S
O876        H901   0.990       .  S
O877        H897   0.990       .  S
Zr878       O879   2.434       .  S
Zr878       O880   2.435       .  S
Zr878       O884   2.372       .  S
Zr878       O883   2.369       .  S
Zr878       O888   2.375       .  S
Zr878       O886   2.372       .  S
O879        H895   0.990       .  S
O880        H894   0.990       .  S
O880        H904   0.990       .  S
Zr881       O884   2.377       .  S
Zr881       O886   2.384       .  S
Zr881       O887   2.384       .  S
Zr882       O883   2.382       .  S
Zr882       O885   2.383       .  S
Zr882       O888   2.383       .  S
O883        H891   0.966       .  S
O886        H890   0.966       .  S
O887        H892   0.966       .  S
C905        C906   1.345       .  D
C905        H907   1.087       .  S
C906        H908   1.087       .  S
C909        C910   1.345       .  D
C909        H911   1.087       .  S
C910        H912   1.087       .  S
C913        C914   1.345       .  D
C913        H915   1.087       .  S
C914        H916   1.087       .  S
C917        C918   1.345       .  D
C917        H919   1.087       .  S
C918        H920   1.087       .  S
C921        C922   1.345       .  D
C921        H923   1.087       .  S
C922        H924   1.087       .  S
C925        C926   1.345       .  D
C925        H927   1.087       .  S
C926        H928   1.087       .  S
C929        C930   1.345       .  D
C929        H931   1.087       .  S
C930        H932   1.087       .  S
C933        C934   1.345       .  D
C933        H935   1.087       .  S
C934        H936   1.087       .  S
O937       Zr949   2.445   1_655  S
O937        C939   1.289       .  A
O938      Zr1599   2.419       .  S
O938        C939   1.285       .  A
C939       C1078   1.477       .  S
O940        C942   1.289       .  A
O941      Zr1288   2.421       .  S
O941        C942   1.285       .  A
C942       C1069   1.476       .  S
O943       Zr952   2.443   1_655  S
O943        C945   1.289       .  A
O944      Zr1443   2.419       .  S
O944        C945   1.285       .  A
C945       C1089   1.476       .  S
O946        C948   1.289       .  A
O947       Zr976   2.421       .  S
O947        C948   1.285       .  A
C948       C1085   1.476       .  S
Zr949       O950   2.433       .  S
Zr949       O955   2.372   1_455  S
Zr949      O1449   2.372   1_455  S
O950        H993   0.990   1_455  S
Zr952       O953   2.435       .  S
Zr952      O1267   2.372   1_454  S
Zr952      O1448   2.374   1_455  S
O953        H997   0.990       .  S
O955      Zr1108   2.372   1_655  S
O955      Zr1599   2.376       .  S
O956       Zr976   2.382       .  S
O956       H1139   0.966       .  S
O957       Zr969   2.444       .  S
O957        C959   1.289       .  A
O958      Zr1444   2.420       .  S
O958        C959   1.285       .  A
C959       C1065   1.476       .  S
O960        C962   1.289       .  A
O961       Zr975   2.419       .  S
O961        C962   1.285       .  A
C962       C1073   1.476       .  S
O963       Zr972   2.444       .  S
O963        C965   1.289       .  A
O964      Zr1756   2.421       .  S
O964        C965   1.285       .  A
C965       C1061   1.476       .  S
O966        C968   1.289       .  A
O967      Zr1131   2.419       .  S
O967        C968   1.285       .  A
C968       C1082   1.476       .  S
Zr969       O970   2.436       .  S
Zr969       O971   2.434       .  S
Zr969      O1133   2.369       .  S
Zr969      O1447   2.375       .  S
O970        H990   0.990       .  S
O970        H995   0.990       .  S
O971        H991   0.990       .  S
Zr972       O973   2.434       .  S
Zr972       O974   2.435       .  S
Zr972       O977   2.370       .  S
Zr972      O1450   2.375       .  S
O974        H988   0.990       .  S
O974        H998   0.990       .  S
Zr975      O1718   2.419   1_544  S
Zr975      O1412   2.419   1_545  S
Zr975      O1279   2.420   1_554  S
Zr975      O1735   2.376   1_544  S
Zr975       O978   2.377       .  S
Zr975       O980   2.384       .  S
Zr975      O1293   2.384   1_554  S
Zr976      O1097   2.421       .  S
Zr976      O1426   2.420       .  S
Zr976      O1588   2.422       .  S
Zr976      O1601   2.382       .  S
Zr976       O979   2.383       .  S
Zr976      O1138   2.383       .  S
O977      Zr1281   2.369   1_554  S
O977      Zr1756   2.382       .  S
O977       H1297   0.966       .  S
O979      Zr1437   2.375       .  S
O980      Zr1420   2.374   1_645  S
O980        H984   0.966       .  S
O981      Zr1417   2.373   1_645  S
O981      Zr1131   2.385       .  S
O981        H986   0.966       .  S
O982      Zr1440   2.375       .  S
O982      Zr1288   2.383       .  S
H983       O1268   0.966       .  S
H985       O1133   0.966       .  S
O999      Zr1011   2.444       .  S
O999       C1001   1.289       .  A
O1000     Zr1037   2.419       .  S
O1000      C1001   1.285       .  A
C1001      C1090   1.476       .  S
O1002     Zr1014   2.444       .  S
O1002      C1004   1.289       .  A
O1003     Zr1038   2.421       .  S
O1003      C1004   1.285       .  A
C1004      C1086   1.476       .  S
O1005     Zr1014   2.443       .  S
O1005      C1007   1.289       .  A
O1006     Zr1037   2.421       .  S
O1006      C1007   1.285       .  A
C1007      C1077   1.477       .  S
O1008     Zr1011   2.444       .  S
O1008      C1010   1.289       .  A
O1009     Zr1038   2.421       .  S
O1009      C1010   1.285       .  A
C1010      C1070   1.476       .  S
Zr1011     O1012   2.433       .  S
Zr1011     O1013   2.437       .  S
Zr1011     O1017   2.372       .  S
Zr1011     O1018   2.371       .  S
Zr1011     O1041   2.374       .  S
Zr1011     O1043   2.373       .  S
O1012      H1055   0.990       .  S
O1013      H1054   0.990       .  S
O1013      H1058   0.990       .  S
Zr1014     O1015   2.435       .  S
Zr1014     O1016   2.436       .  S
Zr1014     O1018   2.370       .  S
Zr1014     O1017   2.372       .  S
Zr1014     O1042   2.373       .  S
Zr1014     O1044   2.375       .  S
O1015      H1056   0.990       .  S
O1015      H1059   0.990       .  S
O1016      H1049   0.990       .  S
O1017     Zr1037   2.376       .  S
O1018     Zr1038   2.381       .  S
O1018      H1045   0.966       .  S
O1019     Zr1031   2.445       .  S
O1019      C1021   1.289       .  A
O1020     Zr1038   2.420       .  S
O1020      C1021   1.285       .  A
C1021      C1062   1.476       .  S
O1022     Zr1034   2.443       .  S
O1022      C1024   1.289       .  A
O1023     Zr1037   2.418       .  S
O1023      C1024   1.285       .  A
C1024      C1081   1.476       .  S
O1025     Zr1034   2.444       .  S
O1025      C1027   1.289       .  A
O1026     Zr1038   2.420       .  S
O1026      C1027   1.285       .  A
C1027      C1066   1.476       .  S
O1028     Zr1031   2.442       .  S
O1028      C1030   1.289       .  A
O1029     Zr1037   2.419       .  S
O1029      C1030   1.285       .  A
C1030      C1074   1.476       .  S
Zr1031     O1032   2.436       .  S
Zr1031     O1033   2.434       .  S
Zr1031     O1039   2.368       .  S
Zr1031     O1040   2.371       .  S
Zr1031     O1043   2.373       .  S
Zr1031     O1041   2.375       .  S
O1032      H1052   0.990       .  S
O1032      H1057   0.990       .  S
O1033      H1053   0.990       .  S
Zr1034     O1035   2.434       .  S
Zr1034     O1036   2.435       .  S
Zr1034     O1040   2.371       .  S
Zr1034     O1039   2.369       .  S
Zr1034     O1044   2.375       .  S
Zr1034     O1042   2.372       .  S
O1035      H1051   0.990       .  S
O1036      H1050   0.990       .  S
O1036      H1060   0.990       .  S
Zr1037     O1040   2.377       .  S
Zr1037     O1042   2.384       .  S
Zr1037     O1043   2.385       .  S
Zr1038     O1039   2.382       .  S
Zr1038     O1041   2.383       .  S
Zr1038     O1044   2.383       .  S
O1039      H1047   0.966       .  S
O1042      H1046   0.966       .  S
O1043      H1048   0.966       .  S
C1061      C1062   1.345       .  D
C1061      H1063   1.087       .  S
C1062      H1064   1.087       .  S
C1065      C1066   1.345       .  D
C1065      H1067   1.087       .  S
C1066      H1068   1.087       .  S
C1069      C1070   1.345       .  D
C1069      H1071   1.087       .  S
C1070      H1072   1.087       .  S
C1073      C1074   1.345       .  D
C1073      H1075   1.087       .  S
C1074      H1076   1.087       .  S
C1077      C1078   1.345       .  D
C1077      H1079   1.087       .  S
C1078      H1080   1.087       .  S
C1081      C1082   1.345       .  D
C1081      H1083   1.087       .  S
C1082      H1084   1.087       .  S
C1085      C1086   1.345       .  D
C1085      H1087   1.087       .  S
C1086      H1088   1.087       .  S
C1089      C1090   1.345       .  D
C1089      H1091   1.087       .  S
C1090      H1092   1.087       .  S
O1093     Zr1105   2.445   1_655  S
O1093      C1095   1.289       .  A
O1094     Zr1755   2.418       .  S
O1094      C1095   1.284       .  A
C1095      C1234   1.476       .  S
O1096      C1098   1.289       .  A
O1097      C1098   1.285       .  A
C1098      C1225   1.476       .  S
O1099     Zr1108   2.443   1_655  S
O1099      C1101   1.289       .  A
O1100     Zr1599   2.420       .  S
O1100      C1101   1.285       .  A
C1101      C1245   1.477       .  S
O1102      C1104   1.289       .  A
O1103     Zr1132   2.421       .  S
O1103      C1104   1.285       .  A
C1104      C1241   1.476       .  S
Zr1105     O1106   2.433       .  S
Zr1105     O1111   2.372   1_455  S
Zr1105     O1605   2.372   1_455  S
O1106      H1149   0.990   1_455  S
Zr1108     O1109   2.435       .  S
Zr1108     O1604   2.374   1_455  S
O1109      H1153   0.990       .  S
O1111     Zr1264   2.372   1_655  S
O1111     Zr1755   2.376       .  S
O1112     Zr1132   2.381       .  S
O1112      H1295   0.966       .  S
O1113     Zr1125   2.445       .  S
O1113      C1115   1.289       .  A
O1114     Zr1600   2.420       .  S
O1114      C1115   1.285       .  A
C1115      C1221   1.476       .  S
O1116      C1118   1.289       .  A
O1117     Zr1131   2.419       .  S
O1117      C1118   1.285       .  A
C1118      C1229   1.476       .  S
O1119     Zr1128   2.444       .  S
O1119      C1121   1.289       .  A
O1120     Zr1444   2.421       .  S
O1120      C1121   1.285       .  A
C1121      C1217   1.476       .  S
O1122      C1124   1.289       .  A
O1123     Zr1287   2.419       .  S
O1123      C1124   1.285       .  A
C1124      C1238   1.476       .  S
Zr1125     O1126   2.436       .  S
Zr1125     O1127   2.434       .  S
Zr1125     O1289   2.369       .  S
Zr1125     O1603   2.376       .  S
O1126      H1146   0.990       .  S
O1126      H1151   0.990       .  S
O1127      H1147   0.990       .  S
Zr1128     O1129   2.434       .  S
Zr1128     O1130   2.435       .  S
Zr1128     O1133   2.370       .  S
Zr1128     O1606   2.375       .  S
O1130      H1144   0.990       .  S
O1130      H1154   0.990       .  S
Zr1131     O1406   2.419   1_545  S
Zr1131     O1568   2.420   1_545  S
Zr1131     O1423   2.376   1_545  S
Zr1131     O1134   2.377       .  S
Zr1131     O1136   2.384       .  S
Zr1132     O1253   2.421       .  S
Zr1132     O1582   2.420       .  S
Zr1132     O1744   2.421       .  S
Zr1132     O1757   2.382       .  S
Zr1132     O1135   2.383       .  S
Zr1132     O1294   2.383       .  S
O1133     Zr1444   2.382       .  S
O1135     Zr1593   2.375       .  S
O1136     Zr1576   2.374   1_645  S
O1136      H1140   0.966       .  S
O1137     Zr1573   2.373   1_645  S
O1137     Zr1287   2.385       .  S
O1137      H1142   0.966       .  S
O1138     Zr1596   2.374       .  S
H1141      O1289   0.966       .  S
O1155     Zr1167   2.444       .  S
O1155      C1157   1.289       .  A
O1156     Zr1193   2.419       .  S
O1156      C1157   1.285       .  A
C1157      C1246   1.477       .  S
O1158     Zr1170   2.444       .  S
O1158      C1160   1.289       .  A
O1159     Zr1194   2.421       .  S
O1159      C1160   1.285       .  A
C1160      C1242   1.476       .  S
O1161     Zr1170   2.443       .  S
O1161      C1163   1.289       .  A
O1162     Zr1193   2.420       .  S
O1162      C1163   1.285       .  A
C1163      C1233   1.476       .  S
O1164     Zr1167   2.445       .  S
O1164      C1166   1.289       .  A
O1165     Zr1194   2.421       .  S
O1165      C1166   1.285       .  A
C1166      C1226   1.476       .  S
Zr1167     O1168   2.433       .  S
Zr1167     O1169   2.437       .  S
Zr1167     O1173   2.372       .  S
Zr1167     O1174   2.371       .  S
Zr1167     O1197   2.374       .  S
Zr1167     O1199   2.372       .  S
O1168      H1211   0.990       .  S
O1169      H1210   0.990       .  S
O1169      H1214   0.990       .  S
Zr1170     O1171   2.435       .  S
Zr1170     O1172   2.436       .  S
Zr1170     O1174   2.370       .  S
Zr1170     O1173   2.372       .  S
Zr1170     O1198   2.374       .  S
Zr1170     O1200   2.375       .  S
O1171      H1212   0.990       .  S
O1171      H1215   0.990       .  S
O1172      H1205   0.990       .  S
O1173     Zr1193   2.376       .  S
O1174     Zr1194   2.382       .  S
O1174      H1201   0.966       .  S
O1175     Zr1187   2.444       .  S
O1175      C1177   1.289       .  A
O1176     Zr1194   2.420       .  S
O1176      C1177   1.285       .  A
C1177      C1218   1.476       .  S
O1178     Zr1190   2.443       .  S
O1178      C1180   1.289       .  A
O1179     Zr1193   2.419       .  S
O1179      C1180   1.285       .  A
C1180      C1237   1.476       .  S
O1181     Zr1190   2.444       .  S
O1181      C1183   1.289       .  A
O1182     Zr1194   2.421       .  S
O1182      C1183   1.285       .  A
C1183      C1222   1.476       .  S
O1184     Zr1187   2.442       .  S
O1184      C1186   1.289       .  A
O1185     Zr1193   2.420       .  S
O1185      C1186   1.285       .  A
C1186      C1230   1.476       .  S
Zr1187     O1188   2.435       .  S
Zr1187     O1189   2.434       .  S
Zr1187     O1195   2.369       .  S
Zr1187     O1196   2.371       .  S
Zr1187     O1199   2.372       .  S
Zr1187     O1197   2.375       .  S
O1188      H1208   0.990       .  S
O1188      H1213   0.990       .  S
O1189      H1209   0.990       .  S
Zr1190     O1191   2.434       .  S
Zr1190     O1192   2.435       .  S
Zr1190     O1196   2.372       .  S
Zr1190     O1195   2.370       .  S
Zr1190     O1200   2.375       .  S
Zr1190     O1198   2.371       .  S
O1191      H1207   0.990       .  S
O1192      H1206   0.990       .  S
O1192      H1216   0.990       .  S
Zr1193     O1196   2.376       .  S
Zr1193     O1198   2.384       .  S
Zr1193     O1199   2.384       .  S
Zr1194     O1195   2.381       .  S
Zr1194     O1197   2.383       .  S
Zr1194     O1200   2.383       .  S
O1195      H1203   0.966       .  S
O1198      H1202   0.966       .  S
O1199      H1204   0.966       .  S
C1217      C1218   1.345       .  D
C1217      H1219   1.087       .  S
C1218      H1220   1.087       .  S
C1221      C1222   1.345       .  D
C1221      H1223   1.087       .  S
C1222      H1224   1.087       .  S
C1225      C1226   1.345       .  D
C1225      H1227   1.087       .  S
C1226      H1228   1.087       .  S
C1229      C1230   1.345       .  D
C1229      H1231   1.087       .  S
C1230      H1232   1.087       .  S
C1233      C1234   1.345       .  D
C1233      H1235   1.087       .  S
C1234      H1236   1.087       .  S
C1237      C1238   1.345       .  D
C1237      H1239   1.087       .  S
C1238      H1240   1.087       .  S
C1241      C1242   1.345       .  D
C1241      H1243   1.087       .  S
C1242      H1244   1.087       .  S
C1245      C1246   1.345       .  D
C1245      H1247   1.087       .  S
C1246      H1248   1.087       .  S
O1249     Zr1261   2.444   1_655  S
O1249      C1251   1.289       .  A
O1250     Zr1443   2.419   1_556  S
O1250      C1251   1.285       .  A
C1251      C1390   1.477       .  S
O1252      C1254   1.289       .  A
O1253      C1254   1.285       .  A
C1254      C1381   1.476       .  S
O1255     Zr1264   2.443   1_655  S
O1255      C1257   1.289       .  A
O1256     Zr1755   2.420       .  S
O1256      C1257   1.285       .  A
C1257      C1401   1.476       .  S
O1258      C1260   1.289       .  A
O1259     Zr1288   2.421   1_556  S
O1259      C1260   1.285       .  A
C1260      C1397   1.476       .  S
Zr1261     O1262   2.433       .  S
Zr1261     O1267   2.372   1_455  S
Zr1261     O1761   2.373   1_455  S
O1262      H1305   0.990   1_455  S
Zr1264     O1265   2.436       .  S
Zr1264     O1760   2.373   1_455  S
O1265      H1309   0.990       .  S
O1267     Zr1443   2.376   1_556  S
O1268     Zr1288   2.381   1_556  S
O1269     Zr1281   2.444       .  S
O1269      C1271   1.289       .  A
O1270     Zr1756   2.420   1_556  S
O1270      C1271   1.285       .  A
C1271      C1377   1.476       .  S
O1272      C1274   1.289       .  A
O1273     Zr1287   2.419       .  S
O1273      C1274   1.285       .  A
C1274      C1385   1.476       .  S
O1275     Zr1284   2.445       .  S
O1275      C1277   1.289       .  A
O1276     Zr1600   2.421       .  S
O1276      C1277   1.285       .  A
C1277      C1373   1.476       .  S
O1278      C1280   1.289       .  A
O1279      C1280   1.285       .  A
C1280      C1394   1.476       .  S
Zr1281     O1282   2.435       .  S
Zr1281     O1283   2.434       .  S
Zr1281     O1759   2.375       .  S
O1282      H1302   0.990       .  S
O1282      H1307   0.990       .  S
O1283      H1303   0.990       .  S
Zr1284     O1285   2.434       .  S
Zr1284     O1286   2.435       .  S
Zr1284     O1289   2.369       .  S
Zr1284     O1762   2.375       .  S
O1286      H1300   0.990       .  S
O1286      H1310   0.990       .  S
Zr1287     O1562   2.418   1_545  S
Zr1287     O1724   2.420   1_545  S
Zr1287     O1579   2.377   1_545  S
Zr1287     O1290   2.377       .  S
Zr1287     O1292   2.384       .  S
Zr1288     O1738   2.420   1_554  S
Zr1288     O1432   2.421       .  S
Zr1288     O1445   2.382       .  S
Zr1288     O1291   2.383   1_554  S
O1289     Zr1600   2.382       .  S
O1291     Zr1749   2.375       .  S
O1292     Zr1732   2.373   1_645  S
O1292      H1296   0.966       .  S
O1293     Zr1729   2.373   1_645  S
O1293      H1298   0.966       .  S
O1294     Zr1752   2.374       .  S
O1311     Zr1323   2.444       .  S
O1311      C1313   1.289       .  A
O1312     Zr1349   2.419       .  S
O1312      C1313   1.285       .  A
C1313      C1402   1.476       .  S
O1314     Zr1326   2.444       .  S
O1314      C1316   1.289       .  A
O1315     Zr1350   2.421       .  S
O1315      C1316   1.285       .  A
C1316      C1398   1.476       .  S
O1317     Zr1326   2.443       .  S
O1317      C1319   1.289       .  A
O1318     Zr1349   2.420       .  S
O1318      C1319   1.285       .  A
C1319      C1389   1.477       .  S
O1320     Zr1323   2.445       .  S
O1320      C1322   1.289       .  A
O1321     Zr1350   2.421       .  S
O1321      C1322   1.285       .  A
C1322      C1382   1.476       .  S
Zr1323     O1324   2.433       .  S
Zr1323     O1325   2.437       .  S
Zr1323     O1329   2.372       .  S
Zr1323     O1330   2.371       .  S
Zr1323     O1353   2.374       .  S
Zr1323     O1355   2.373       .  S
O1324      H1367   0.990       .  S
O1325      H1366   0.990       .  S
O1325      H1370   0.990       .  S
Zr1326     O1327   2.436       .  S
Zr1326     O1328   2.436       .  S
Zr1326     O1330   2.370       .  S
Zr1326     O1329   2.372       .  S
Zr1326     O1354   2.373       .  S
Zr1326     O1356   2.375       .  S
O1327      H1368   0.990       .  S
O1327      H1371   0.990       .  S
O1328      H1361   0.990       .  S
O1329     Zr1349   2.377       .  S
O1330     Zr1350   2.381       .  S
O1330      H1357   0.966       .  S
O1331     Zr1343   2.445       .  S
O1331      C1333   1.289       .  A
O1332     Zr1350   2.420       .  S
O1332      C1333   1.285       .  A
C1333      C1374   1.476       .  S
O1334     Zr1346   2.444       .  S
O1334      C1336   1.289       .  A
O1335     Zr1349   2.419       .  S
O1335      C1336   1.285       .  A
C1336      C1393   1.476       .  S
O1337     Zr1346   2.444       .  S
O1337      C1339   1.289       .  A
O1338     Zr1350   2.421       .  S
O1338      C1339   1.285       .  A
C1339      C1378   1.476       .  S
O1340     Zr1343   2.443       .  S
O1340      C1342   1.289       .  A
O1341     Zr1349   2.419       .  S
O1341      C1342   1.285       .  A
C1342      C1386   1.476       .  S
Zr1343     O1344   2.436       .  S
Zr1343     O1345   2.434       .  S
Zr1343     O1351   2.369       .  S
Zr1343     O1352   2.371       .  S
Zr1343     O1355   2.373       .  S
Zr1343     O1353   2.376       .  S
O1344      H1364   0.990       .  S
O1344      H1369   0.990       .  S
O1345      H1365   0.990       .  S
Zr1346     O1347   2.434       .  S
Zr1346     O1348   2.435       .  S
Zr1346     O1352   2.372       .  S
Zr1346     O1351   2.369       .  S
Zr1346     O1356   2.375       .  S
Zr1346     O1354   2.372       .  S
O1347      H1363   0.990       .  S
O1348      H1362   0.990       .  S
O1348      H1372   0.990       .  S
Zr1349     O1352   2.377       .  S
Zr1349     O1354   2.384       .  S
Zr1349     O1355   2.384       .  S
Zr1350     O1351   2.382       .  S
Zr1350     O1353   2.383       .  S
Zr1350     O1356   2.383       .  S
O1351      H1359   0.966       .  S
O1354      H1358   0.966       .  S
O1355      H1360   0.966       .  S
C1373      C1374   1.345       .  D
C1373      H1375   1.087       .  S
C1374      H1376   1.087       .  S
C1377      C1378   1.345       .  D
C1377      H1379   1.087       .  S
C1378      H1380   1.087       .  S
C1381      C1382   1.345       .  D
C1381      H1383   1.087       .  S
C1382      H1384   1.087       .  S
C1385      C1386   1.345       .  D
C1385      H1387   1.087       .  S
C1386      H1388   1.087       .  S
C1389      C1390   1.345       .  D
C1389      H1391   1.087       .  S
C1390      H1392   1.087       .  S
C1393      C1394   1.345       .  D
C1393      H1395   1.087       .  S
C1394      H1396   1.087       .  S
C1397      C1398   1.345       .  D
C1397      H1399   1.087       .  S
C1398      H1400   1.087       .  S
C1401      C1402   1.345       .  D
C1401      H1403   1.087       .  S
C1402      H1404   1.087       .  S
O1405     Zr1417   2.444   1_655  S
O1405      C1407   1.289       .  A
O1406      C1407   1.285       .  A
C1407      C1546   1.477       .  S
O1408      C1410   1.289       .  A
O1409     Zr1756   2.421   1_565  S
O1409      C1410   1.285       .  A
C1410      C1537   1.476       .  S
O1411     Zr1420   2.443   1_655  S
O1411      C1413   1.289       .  A
O1412      C1413   1.285       .  A
C1413      C1557   1.476       .  S
O1414      C1416   1.289       .  A
O1415     Zr1444   2.422   1_565  S
O1415      C1416   1.285       .  A
C1416      C1553   1.476       .  S
Zr1417     O1418   2.433       .  S
Zr1417     O1423   2.372   1_455  S
O1418      H1461   0.990   1_455  S
Zr1420     O1421   2.435       .  S
Zr1420     O1735   2.372   1_454  S
O1421      H1465   0.990       .  S
O1423     Zr1576   2.372   1_655  S
O1424     Zr1444   2.381   1_565  S
O1424      H1607   0.966       .  S
O1425     Zr1437   2.444       .  S
O1425      C1427   1.289       .  A
O1426      C1427   1.285       .  A
C1427      C1533   1.476       .  S
O1428      C1430   1.289       .  A
O1429     Zr1443   2.418       .  S
O1429      C1430   1.285       .  A
C1430      C1541   1.476       .  S
O1431     Zr1440   2.444       .  S
O1431      C1433   1.289       .  A
O1432      C1433   1.285       .  A
C1433      C1529   1.476       .  S
O1434      C1436   1.289       .  A
O1435     Zr1599   2.419       .  S
O1435      C1436   1.285       .  A
C1436      C1550   1.476       .  S
Zr1437     O1438   2.435       .  S
Zr1437     O1439   2.434       .  S
Zr1437     O1601   2.369       .  S
O1438      H1458   0.990       .  S
O1438      H1463   0.990       .  S
O1439      H1459   0.990       .  S
Zr1440     O1441   2.433       .  S
Zr1440     O1442   2.435       .  S
Zr1440     O1445   2.370       .  S
O1442      H1456   0.990       .  S
O1442      H1466   0.990       .  S
Zr1443     O1747   2.419   1_554  S
Zr1443     O1446   2.376       .  S
Zr1443     O1448   2.384       .  S
Zr1443     O1761   2.384   1_554  S
Zr1444     O1565   2.421   1_545  S
Zr1444     O1447   2.383       .  S
Zr1444     O1606   2.383       .  S
O1445     Zr1749   2.369   1_554  S
O1445      H1765   0.966       .  S
O1448      H1452   0.966       .  S
O1449     Zr1599   2.384       .  S
O1449      H1454   0.966       .  S
O1450     Zr1756   2.383       .  S
H1451      O1736   0.966       .  S
H1453      O1601   0.966       .  S
O1467     Zr1479   2.444       .  S
O1467      C1469   1.289       .  A
O1468     Zr1505   2.419       .  S
O1468      C1469   1.285       .  A
C1469      C1558   1.476       .  S
O1470     Zr1482   2.444       .  S
O1470      C1472   1.289       .  A
O1471     Zr1506   2.421       .  S
O1471      C1472   1.285       .  A
C1472      C1554   1.476       .  S
O1473     Zr1482   2.443       .  S
O1473      C1475   1.289       .  A
O1474     Zr1505   2.420       .  S
O1474      C1475   1.285       .  A
C1475      C1545   1.477       .  S
O1476     Zr1479   2.444       .  S
O1476      C1478   1.289       .  A
O1477     Zr1506   2.421       .  S
O1477      C1478   1.285       .  A
C1478      C1538   1.476       .  S
Zr1479     O1480   2.433       .  S
Zr1479     O1481   2.437       .  S
Zr1479     O1485   2.372       .  S
Zr1479     O1486   2.371       .  S
Zr1479     O1509   2.374       .  S
Zr1479     O1511   2.373       .  S
O1480      H1523   0.990       .  S
O1481      H1522   0.990       .  S
O1481      H1526   0.990       .  S
Zr1482     O1483   2.436       .  S
Zr1482     O1484   2.436       .  S
Zr1482     O1486   2.370       .  S
Zr1482     O1485   2.372       .  S
Zr1482     O1510   2.374       .  S
Zr1482     O1512   2.375       .  S
O1483      H1524   0.990       .  S
O1483      H1527   0.990       .  S
O1484      H1517   0.990       .  S
O1485     Zr1505   2.376       .  S
O1486     Zr1506   2.382       .  S
O1486      H1513   0.966       .  S
O1487     Zr1499   2.444       .  S
O1487      C1489   1.289       .  A
O1488     Zr1506   2.420       .  S
O1488      C1489   1.285       .  A
C1489      C1530   1.476       .  S
O1490     Zr1502   2.444       .  S
O1490      C1492   1.289       .  A
O1491     Zr1505   2.418       .  S
O1491      C1492   1.285       .  A
C1492      C1549   1.476       .  S
O1493     Zr1502   2.444       .  S
O1493      C1495   1.289       .  A
O1494     Zr1506   2.421       .  S
O1494      C1495   1.285       .  A
C1495      C1534   1.476       .  S
O1496     Zr1499   2.443       .  S
O1496      C1498   1.289       .  A
O1497     Zr1505   2.419       .  S
O1497      C1498   1.285       .  A
C1498      C1542   1.476       .  S
Zr1499     O1500   2.436       .  S
Zr1499     O1501   2.434       .  S
Zr1499     O1507   2.369       .  S
Zr1499     O1508   2.371       .  S
Zr1499     O1511   2.372       .  S
Zr1499     O1509   2.375       .  S
O1500      H1520   0.990       .  S
O1500      H1525   0.990       .  S
O1501      H1521   0.990       .  S
Zr1502     O1503   2.434       .  S
Zr1502     O1504   2.436       .  S
Zr1502     O1508   2.372       .  S
Zr1502     O1507   2.370       .  S
Zr1502     O1512   2.375       .  S
Zr1502     O1510   2.371       .  S
O1503      H1519   0.990       .  S
O1504      H1518   0.990       .  S
O1504      H1528   0.990       .  S
Zr1505     O1508   2.377       .  S
Zr1505     O1510   2.384       .  S
Zr1505     O1511   2.384       .  S
Zr1506     O1507   2.382       .  S
Zr1506     O1509   2.383       .  S
Zr1506     O1512   2.383       .  S
O1507      H1515   0.966       .  S
O1510      H1514   0.966       .  S
O1511      H1516   0.966       .  S
C1529      C1530   1.345       .  D
C1529      H1531   1.087       .  S
C1530      H1532   1.087       .  S
C1533      C1534   1.345       .  D
C1533      H1535   1.087       .  S
C1534      H1536   1.087       .  S
C1537      C1538   1.345       .  D
C1537      H1539   1.087       .  S
C1538      H1540   1.087       .  S
C1541      C1542   1.345       .  D
C1541      H1543   1.087       .  S
C1542      H1544   1.087       .  S
C1545      C1546   1.345       .  D
C1545      H1547   1.087       .  S
C1546      H1548   1.087       .  S
C1549      C1550   1.345       .  D
C1549      H1551   1.087       .  S
C1550      H1552   1.087       .  S
C1553      C1554   1.345       .  D
C1553      H1555   1.087       .  S
C1554      H1556   1.087       .  S
C1557      C1558   1.345       .  D
C1557      H1559   1.087       .  S
C1558      H1560   1.087       .  S
O1561     Zr1573   2.444   1_655  S
O1561      C1563   1.289       .  A
O1562      C1563   1.285       .  A
C1563      C1702   1.476       .  S
O1564      C1566   1.289       .  A
O1565      C1566   1.285       .  A
C1566      C1693   1.476       .  S
O1567     Zr1576   2.443   1_655  S
O1567      C1569   1.289       .  A
O1568      C1569   1.285       .  A
C1569      C1713   1.477       .  S
O1570      C1572   1.289       .  A
O1571     Zr1600   2.421   1_565  S
O1571      C1572   1.285       .  A
C1572      C1709   1.476       .  S
Zr1573     O1574   2.433       .  S
Zr1573     O1579   2.372   1_455  S
O1574      H1617   0.990   1_455  S
Zr1576     O1577   2.435       .  S
O1577      H1621   0.990       .  S
O1579     Zr1732   2.372   1_655  S
O1580     Zr1600   2.381   1_565  S
O1580      H1763   0.966       .  S
O1581     Zr1593   2.444       .  S
O1581      C1583   1.289       .  A
O1582      C1583   1.285       .  A
C1583      C1689   1.476       .  S
O1584      C1586   1.289       .  A
O1585     Zr1599   2.419       .  S
O1585      C1586   1.285       .  A
C1586      C1697   1.476       .  S
O1587     Zr1596   2.444       .  S
O1587      C1589   1.289       .  A
O1588      C1589   1.285       .  A
C1589      C1685   1.476       .  S
O1590      C1592   1.289       .  A
O1591     Zr1755   2.419       .  S
O1591      C1592   1.285       .  A
C1592      C1706   1.476       .  S
Zr1593     O1594   2.435       .  S
Zr1593     O1595   2.434       .  S
Zr1593     O1757   2.369       .  S
O1594      H1614   0.990       .  S
O1594      H1619   0.990       .  S
O1595      H1615   0.990       .  S
Zr1596     O1597   2.434       .  S
Zr1596     O1598   2.435       .  S
Zr1596     O1601   2.370       .  S
O1598      H1612   0.990       .  S
O1598      H1622   0.990       .  S
Zr1599     O1602   2.377       .  S
Zr1599     O1604   2.384       .  S
Zr1600     O1721   2.421   1_545  S
Zr1600     O1603   2.383       .  S
Zr1600     O1762   2.383       .  S
O1604      H1608   0.966       .  S
O1605     Zr1755   2.384       .  S
O1605      H1610   0.966       .  S
H1609      O1757   0.966       .  S
O1623     Zr1635   2.444       .  S
O1623      C1625   1.289       .  A
O1624     Zr1661   2.419       .  S
O1624      C1625   1.285       .  A
C1625      C1714   1.477       .  S
O1626     Zr1638   2.444       .  S
O1626      C1628   1.289       .  A
O1627     Zr1662   2.421       .  S
O1627      C1628   1.285       .  A
C1628      C1710   1.476       .  S
O1629     Zr1638   2.443       .  S
O1629      C1631   1.289       .  A
O1630     Zr1661   2.420       .  S
O1630      C1631   1.285       .  A
C1631      C1701   1.476       .  S
O1632     Zr1635   2.444       .  S
O1632      C1634   1.289       .  A
O1633     Zr1662   2.421       .  S
O1633      C1634   1.285       .  A
C1634      C1694   1.476       .  S
Zr1635     O1636   2.433       .  S
Zr1635     O1637   2.437       .  S
Zr1635     O1641   2.372       .  S
Zr1635     O1642   2.371       .  S
Zr1635     O1665   2.374       .  S
Zr1635     O1667   2.373       .  S
O1636      H1679   0.990       .  S
O1637      H1678   0.990       .  S
O1637      H1682   0.990       .  S
Zr1638     O1639   2.435       .  S
Zr1638     O1640   2.436       .  S
Zr1638     O1642   2.370       .  S
Zr1638     O1641   2.372       .  S
Zr1638     O1666   2.374       .  S
Zr1638     O1668   2.375       .  S
O1639      H1680   0.990       .  S
O1639      H1683   0.990       .  S
O1640      H1673   0.990       .  S
O1641     Zr1661   2.376       .  S
O1642     Zr1662   2.382       .  S
O1642      H1669   0.966       .  S
O1643     Zr1655   2.445       .  S
O1643      C1645   1.289       .  A
O1644     Zr1662   2.421       .  S
O1644      C1645   1.285       .  A
C1645      C1686   1.476       .  S
O1646     Zr1658   2.443       .  S
O1646      C1648   1.289       .  A
O1647     Zr1661   2.419       .  S
O1647      C1648   1.285       .  A
C1648      C1705   1.476       .  S
O1649     Zr1658   2.444       .  S
O1649      C1651   1.289       .  A
O1650     Zr1662   2.421       .  S
O1650      C1651   1.285       .  A
C1651      C1690   1.476       .  S
O1652     Zr1655   2.443       .  S
O1652      C1654   1.289       .  A
O1653     Zr1661   2.419       .  S
O1653      C1654   1.285       .  A
C1654      C1698   1.476       .  S
Zr1655     O1656   2.435       .  S
Zr1655     O1657   2.434       .  S
Zr1655     O1663   2.369       .  S
Zr1655     O1664   2.371       .  S
Zr1655     O1667   2.372       .  S
Zr1655     O1665   2.375       .  S
O1656      H1676   0.990       .  S
O1656      H1681   0.990       .  S
O1657      H1677   0.990       .  S
Zr1658     O1659   2.434       .  S
Zr1658     O1660   2.435       .  S
Zr1658     O1664   2.372       .  S
Zr1658     O1663   2.370       .  S
Zr1658     O1668   2.374       .  S
Zr1658     O1666   2.371       .  S
O1659      H1675   0.990       .  S
O1660      H1674   0.990       .  S
O1660      H1684   0.990       .  S
Zr1661     O1664   2.376       .  S
Zr1661     O1666   2.384       .  S
Zr1661     O1667   2.384       .  S
Zr1662     O1663   2.382       .  S
Zr1662     O1665   2.383       .  S
Zr1662     O1668   2.383       .  S
O1663      H1671   0.966       .  S
O1666      H1670   0.966       .  S
O1667      H1672   0.966       .  S
C1685      C1686   1.345       .  D
C1685      H1687   1.087       .  S
C1686      H1688   1.087       .  S
C1689      C1690   1.345       .  D
C1689      H1691   1.087       .  S
C1690      H1692   1.087       .  S
C1693      C1694   1.345       .  D
C1693      H1695   1.087       .  S
C1694      H1696   1.087       .  S
C1697      C1698   1.345       .  D
C1697      H1699   1.087       .  S
C1698      H1700   1.087       .  S
C1701      C1702   1.345       .  D
C1701      H1703   1.087       .  S
C1702      H1704   1.087       .  S
C1705      C1706   1.345       .  D
C1705      H1707   1.087       .  S
C1706      H1708   1.087       .  S
C1709      C1710   1.345       .  D
C1709      H1711   1.087       .  S
C1710      H1712   1.087       .  S
C1713      C1714   1.345       .  D
C1713      H1715   1.087       .  S
C1714      H1716   1.087       .  S
O1717     Zr1729   2.444   1_655  S
O1717      C1719   1.289       .  A
O1718      C1719   1.285       .  A
C1719      C1858   1.477       .  S
O1720      C1722   1.289       .  A
O1721      C1722   1.285       .  A
C1722      C1849   1.476       .  S
O1723     Zr1732   2.443   1_655  S
O1723      C1725   1.289       .  A
O1724      C1725   1.285       .  A
C1725      C1869   1.477       .  S
O1726      C1728   1.289       .  A
O1727     Zr1756   2.421   1_566  S
O1727      C1728   1.285       .  A
C1728      C1865   1.477       .  S
Zr1729     O1730   2.434       .  S
Zr1729     O1735   2.372   1_455  S
O1730      H1773   0.990   1_455  S
Zr1732     O1733   2.436       .  S
O1733      H1777   0.990       .  S
O1736     Zr1756   2.381   1_566  S
O1737     Zr1749   2.445       .  S
O1737      C1739   1.289       .  A
O1738      C1739   1.285       .  A
C1739      C1845   1.476       .  S
O1740      C1742   1.289       .  A
O1741     Zr1755   2.418       .  S
O1741      C1742   1.285       .  A
C1742      C1853   1.476       .  S
O1743     Zr1752   2.444       .  S
O1743      C1745   1.289       .  A
O1744      C1745   1.285       .  A
C1745      C1841   1.476       .  S
O1746      C1748   1.289       .  A
O1747      C1748   1.285       .  A
C1748      C1862   1.476       .  S
Zr1749     O1750   2.436       .  S
Zr1749     O1751   2.434       .  S
O1750      H1770   0.990       .  S
O1750      H1775   0.990       .  S
O1751      H1771   0.990       .  S
Zr1752     O1753   2.433       .  S
Zr1752     O1754   2.435       .  S
Zr1752     O1757   2.370       .  S
O1754      H1768   0.990       .  S
O1754      H1778   0.990       .  S
Zr1755     O1758   2.377       .  S
Zr1755     O1760   2.384       .  S
Zr1756     O1759   2.383   1_554  S
O1760      H1764   0.966       .  S
O1761      H1766   0.966       .  S
O1779     Zr1791   2.444       .  S
O1779      C1781   1.289       .  A
O1780     Zr1817   2.419       .  S
O1780      C1781   1.285       .  A
C1781      C1870   1.476       .  S
O1782     Zr1794   2.444       .  S
O1782      C1784   1.289       .  A
O1783     Zr1818   2.422       .  S
O1783      C1784   1.285       .  A
C1784      C1866   1.476       .  S
O1785     Zr1794   2.443       .  S
O1785      C1787   1.289       .  A
O1786     Zr1817   2.420       .  S
O1786      C1787   1.285       .  A
C1787      C1857   1.477       .  S
O1788     Zr1791   2.444       .  S
O1788      C1790   1.289       .  A
O1789     Zr1818   2.422       .  S
O1789      C1790   1.285       .  A
C1790      C1850   1.476       .  S
Zr1791     O1792   2.433       .  S
Zr1791     O1793   2.437       .  S
Zr1791     O1797   2.372       .  S
Zr1791     O1798   2.371       .  S
Zr1791     O1821   2.374       .  S
Zr1791     O1823   2.373       .  S
O1792      H1835   0.990       .  S
O1793      H1834   0.990       .  S
O1793      H1838   0.990       .  S
Zr1794     O1795   2.435       .  S
Zr1794     O1796   2.436       .  S
Zr1794     O1798   2.370       .  S
Zr1794     O1797   2.372       .  S
Zr1794     O1822   2.374       .  S
Zr1794     O1824   2.375       .  S
O1795      H1836   0.990       .  S
O1795      H1839   0.990       .  S
O1796      H1829   0.990       .  S
O1797     Zr1817   2.376       .  S
O1798     Zr1818   2.381       .  S
O1798      H1825   0.966       .  S
O1799     Zr1811   2.445       .  S
O1799      C1801   1.289       .  A
O1800     Zr1818   2.420       .  S
O1800      C1801   1.285       .  A
C1801      C1842   1.476       .  S
O1802     Zr1814   2.444       .  S
O1802      C1804   1.289       .  A
O1803     Zr1817   2.418       .  S
O1803      C1804   1.285       .  A
C1804      C1861   1.476       .  S
O1805     Zr1814   2.444       .  S
O1805      C1807   1.289       .  A
O1806     Zr1818   2.422       .  S
O1806      C1807   1.285       .  A
C1807      C1846   1.476       .  S
O1808     Zr1811   2.442       .  S
O1808      C1810   1.289       .  A
O1809     Zr1817   2.420       .  S
O1809      C1810   1.285       .  A
C1810      C1854   1.476       .  S
Zr1811     O1812   2.436       .  S
Zr1811     O1813   2.434       .  S
Zr1811     O1819   2.369       .  S
Zr1811     O1820   2.371       .  S
Zr1811     O1823   2.373       .  S
Zr1811     O1821   2.375       .  S
O1812      H1832   0.990       .  S
O1812      H1837   0.990       .  S
O1813      H1833   0.990       .  S
Zr1814     O1815   2.434       .  S
Zr1814     O1816   2.435       .  S
Zr1814     O1820   2.372       .  S
Zr1814     O1819   2.370       .  S
Zr1814     O1824   2.375       .  S
Zr1814     O1822   2.371       .  S
O1815      H1831   0.990       .  S
O1816      H1830   0.990       .  S
O1816      H1840   0.990       .  S
Zr1817     O1820   2.377       .  S
Zr1817     O1822   2.384       .  S
Zr1817     O1823   2.384       .  S
Zr1818     O1819   2.382       .  S
Zr1818     O1821   2.384       .  S
Zr1818     O1824   2.383       .  S
O1819      H1827   0.966       .  S
O1822      H1826   0.966       .  S
O1823      H1828   0.966       .  S
C1841      C1842   1.345       .  D
C1841      H1843   1.087       .  S
C1842      H1844   1.087       .  S
C1845      C1846   1.345       .  D
C1845      H1847   1.087       .  S
C1846      H1848   1.087       .  S
C1849      C1850   1.345       .  D
C1849      H1851   1.087       .  S
C1850      H1852   1.087       .  S
C1853      C1854   1.345       .  D
C1853      H1855   1.087       .  S
C1854      H1856   1.087       .  S
C1857      C1858   1.345       .  D
C1857      H1859   1.087       .  S
C1858      H1860   1.087       .  S
C1861      C1862   1.345       .  D
C1861      H1863   1.087       .  S
C1862      H1864   1.087       .  S
C1865      C1866   1.345       .  D
C1865      H1867   1.087       .  S
C1866      H1868   1.087       .  S
C1869      C1870   1.345       .  D
C1869      H1871   1.087       .  S
C1870      H1872   1.087       .  S
