geometry optimzed in LAMMPS
_audit_creation_date              2020-11-30 
_audit_creation_method            'lammps2cif' 
_symmetry_space_group_name_H-M    'P1' 
_symmetry_Int_Tables_number       1 
_symmetry_cell_setting            triclinic 
loop_ 
_symmetry_equiv_pos_as_xyz 
  x,y,z 
_cell_length_a                    57.06471697 
_cell_length_b                    57.183850527873446 
_cell_length_c                    56.99724905989401 
_cell_angle_alpha                 89.67715688652818 
_cell_angle_beta                  90.04062305327776 
_cell_angle_gamma                 90.06644978647361 
loop_ 
_atom_site_label 
_atom_site_type_symbol 
_atom_site_fract_x 
_atom_site_fract_y 
_atom_site_fract_z 
_atom_site_charge 
C1          C  0.77930097  0.77772034  0.74962929     0.80300
N2          N  0.78461373  0.76001132  0.76473035    -0.78000
C3          C  0.77021804  0.75437026  0.78287141     0.82800
N4          N  0.75032032  0.76690243  0.78598814    -0.77900
C5          C  0.74435639  0.78448245  0.77097455     0.82900
N6          N  0.75906406  0.78988571  0.75291538    -0.79600
C7          C  0.23957003  0.81984097  0.33193522     0.80300
N8          N  0.24495505  0.83805876  0.31725789    -0.78000
C9          C  0.26458188  0.85119658  0.32101822     0.82800
N10         N  0.27899972  0.84570708  0.33919410    -0.77900
C11         C  0.27391435  0.82773522  0.35392916     0.82900
N12         N  0.25437920  0.81473030  0.35000665    -0.79600
C13         C  0.80982129  0.77434716  0.34552530     0.80300
N14         N  0.80371579  0.75637818  0.33124888    -0.78000
C15         C  0.81669019  0.75144414  0.31187110     0.82800
N16         N  0.83609243  0.76452698  0.30708535    -0.77900
C17         C  0.84240132  0.78259039  0.32125622     0.82900
N18         N  0.82886449  0.78754416  0.34013566    -0.79600
C19         C  0.24927070  0.28400550  0.25877658     0.80300
N20         N  0.25245312  0.26473027  0.27245522    -0.78000
C21         C  0.27052675  0.24975402  0.26875759     0.82800
N22         N  0.28581431  0.25432377  0.25094622    -0.77900
C23         C  0.28291175  0.27353635  0.23698021     0.82900
N24         N  0.26489344  0.28852134  0.24130458    -0.79600
C25         C  0.82219631  0.35245134  0.28035664     0.80300
N26         N  0.80781226  0.34707005  0.26209768    -0.78000
C27         C  0.80919230  0.32598337  0.25131976     0.82800
N28         N  0.82539190  0.31021331  0.25888705    -0.77900
C29         C  0.83990338  0.31512137  0.27716592     0.82900
N30         N  0.83812888  0.33631513  0.28778304    -0.79600
C31         C  0.76750557  0.34383747  0.82168759     0.80300
N32         N  0.74936862  0.32929217  0.81653406    -0.78000
C33         C  0.74384506  0.31089864  0.83087203     0.82800
N34         N  0.75680238  0.30743157  0.85071525    -0.77900
C35         C  0.77488575  0.32198593  0.85628132     0.82900
N36         N  0.78003390  0.34007213  0.84159439    -0.79600
C37         C  0.32365166  0.83460624  0.76108124     0.80300
N38         N  0.32039377  0.85392250  0.77448524    -0.78000
C39         C  0.33519382  0.85942714  0.79230184     0.82800
N40         N  0.35344937  0.84483350  0.79717325    -0.77900
C41         C  0.35725337  0.82550180  0.78383136     0.82900
N42         N  0.34218517  0.82043528  0.76601801    -0.79600
O43         O  0.08771449  0.15018283  0.13403640    -0.88200
C44         C  0.06982614  0.08174430  0.13251231     0.87800
Mg45       Mg  0.09914059  0.16773304  0.10282449     1.58100
O46         O  0.12463861  0.09291632  0.15810112    -0.88000
O47         O  0.10140159  0.14184978  0.16904229    -0.75300
C48         C  0.17510680  0.09472089  0.05171107     0.92800
O49         O  0.06297187  0.12183732  0.09267361    -0.75100
O50         O  0.16182405  0.11180670  0.04610537    -0.82600
Mg51       Mg  0.05545883  0.13103792  0.13132229     1.58000
C52         C  0.18307306  0.05469332  0.14286647     0.92800
O53         O  0.04367474  0.13981503  0.16973229    -0.80900
H54         H  0.14415246  0.11036778  0.18135386    -0.06200
C55         C  0.12506517  0.07189256  0.09054955     0.87700
O56         O  0.13773345  0.16236728  0.11275754    -0.75400
O57         O  0.07447873  0.10040192  0.14244303    -0.88200
O58         O  0.16248369  0.05152283  0.15119698    -0.81000
C59         C  0.09161626  0.04440870  0.18403576     0.92900
C60         C  0.04530119  0.13031319  0.19003127     0.92700
Mg61       Mg  0.16625544  0.09817886  0.11063807     1.58000
O62         O  0.17672142  0.08738673  0.07286596    -0.80900
O63         O  0.15872316  0.10839873  0.14893563    -0.75100
O64         O  0.08338452  0.06507910  0.18473534    -0.81000
O65         O  0.03513367  0.16301716  0.11756299    -0.82700
O66         O  0.13728751  0.16310320  0.05406984    -0.81000
C67         C  0.14254787  0.10384291  0.16363492     0.87200
O68         O  0.14792030  0.12833227  0.09836562    -0.88100
O69         O  0.13468892  0.07807802  0.10896597    -0.88300
O70         O  0.12092169  0.08617530  0.07387093    -0.75300
Mg71       Mg  0.09286222  0.10297725  0.17514877     1.58000
O72         O  0.11001560  0.03965026  0.17230662    -0.82700
H73         H  0.10228924  0.17436660  0.15462757    -0.06400
O74         O  0.09798233  0.13528783  0.08412310    -0.88000
H75         H  0.07773043  0.11943221  0.06036516    -0.06200
H76         H  0.17079955  0.14946296  0.11430396    -0.06400
C77         C  0.07956748  0.12550162  0.07821623     0.87100
C78         C  0.09704510  0.15634223  0.15261316     0.87700
C79         C  0.15300214  0.14683998  0.10833152     0.87800
H80         H  0.11946489  0.05389986  0.08881756    -0.06400
O81         O  0.08512196  0.06581978  0.12953528    -0.75400
Mg82       Mg  0.12926476  0.12483584  0.06592344     1.58000
H83         H  0.05230311  0.07906847  0.12573825    -0.06400
C84         C  0.04056088  0.17582899  0.09998263     0.92800
O85         O  0.11188310  0.18728533  0.07097375    -0.82600
C86         C  0.12783637  0.18327371  0.05599517     0.92800
O87         O  0.06027982  0.11433551  0.19402835    -0.82600
Mg88       Mg  0.12380945  0.06001754  0.14021683     1.58200
O89         O  0.06141213  0.17684472  0.09206028    -0.81000
O90         O  0.18681936  0.06774690  0.12511154    -0.82700
N91         N  0.18735567  0.32914680  0.97808104    -0.03400
C92         C  0.17915611  0.35052496  0.98457153    -0.00800
C93         C  0.18963162  0.36780163  0.97113925    -0.23700
C94         C  0.20435073  0.35677659  0.95566503    -0.23900
C95         C  0.20255085  0.33305412  0.96010774    -0.00900
H96         H  0.18653862  0.38643300  0.97219647     0.12900
H97         H  0.21509837  0.36514529  0.94241783     0.12900
N98         N  0.96769083  0.18098578  0.33926458    -0.03400
C99         C  0.97793358  0.17368022  0.35954407    -0.00800
C100        C  0.96600736  0.18256636  0.37859787    -0.23700
C101        C  0.94800895  0.19595116  0.36977375    -0.23900
C102        C  0.94926092  0.19466936  0.34555719    -0.00900
H103        H  0.96995537  0.17960801  0.39694493     0.12900
H104        H  0.93550520  0.20583598  0.37996058     0.12900
N105        N  0.33464849  0.98755607  0.20069418    -0.03400
C106        C  0.35511334  0.99311969  0.18963292    -0.00800
C107        C  0.37364483  0.98184220  0.20047527    -0.23700
C108        C  0.36445029  0.96877525  0.21849008    -0.23900
C109        C  0.34051398  0.97250963  0.21838692    -0.00900
H110        H  0.39189124  0.98246919  0.19532192     0.12900
H111        H  0.37412488  0.95703660  0.22985818     0.12900
O112        O  0.98737981  0.61177011  0.53974659    -0.88200
C113        C  0.94328925  0.60558048  0.48459887     0.87800
Mg114      Mg  0.01325216  0.63889956  0.54129829     1.58100
O115        O  0.98832414  0.56381747  0.48618961    -0.88000
O116        O  0.98582520  0.57346317  0.54078928    -0.75300
C117        C  0.06342144  0.63937213  0.43526482     0.92800
O118        O  0.96633721  0.65179700  0.50690516    -0.75100
O119        O  0.06103614  0.65338354  0.45248830    -0.82600
Mg120      Mg  0.95234041  0.62266903  0.53133947     1.58000
C121        C  0.02638649  0.54822814  0.42723300     0.92800
O122        O  0.93467664  0.59550401  0.55662373    -0.80900
H123        H  0.00591450  0.53892614  0.50356442    -0.06200
C124        C  0.99974734  0.62044846  0.44414523     0.87700
O125        O  0.04191419  0.61383148  0.52857870    -0.75400
O126        O  0.95274243  0.59867686  0.50290024    -0.88200
O127        O  0.00512766  0.54808041  0.43429145    -0.81000
C128        C  0.93248039  0.54347274  0.46282930     0.92900
C129        C  0.92663337  0.57466901  0.55544672     0.92700
Mg130      Mg  0.03995873  0.59131759  0.46179684     1.58000
O131        O  0.05512056  0.61866385  0.43608930    -0.80900
O132        O  0.02682260  0.56204517  0.48632776    -0.75100
O133        O  0.93399742  0.54990276  0.48413557    -0.81000
O134        O  0.95135050  0.64985492  0.56015232    -0.82700
O135        O  0.05897275  0.66706942  0.50919203    -0.81000
C136        C  0.00680435  0.55413893  0.49221822     0.87200
O137        O  0.04070702  0.61566717  0.49012095    -0.88100
O138        O  0.00484398  0.60149075  0.45340554    -0.88300
O139        O  0.00737216  0.63978587  0.45206090    -0.75300
Mg140      Mg  0.96049945  0.56297481  0.51127338     1.58000
O141        O  0.94914982  0.54709060  0.44831853    -0.82700
H142        H  0.00424989  0.59291411  0.56409547    -0.06400
O143        O  0.00476454  0.64953561  0.50621085    -0.88000
H144        H  0.98714867  0.67452316  0.48900967    -0.06200
H145        H  0.06483106  0.59694076  0.50739039    -0.06400
C146        C  0.98630600  0.65936084  0.50043504     0.87100
C147        C  0.99274837  0.59290024  0.54901755     0.87700
C148        C  0.04997739  0.60862155  0.50848721     0.87800
H149        H  0.98808081  0.62062058  0.42922067    -0.06400
O150        O  0.95075749  0.59969390  0.46448680    -0.75400
Mg151      Mg  0.03281595  0.65142138  0.48126048     1.58000
H152        H  0.92867750  0.61758690  0.48574150    -0.06400
C153        C  0.96586070  0.66646944  0.56338369     0.92800
O154        O  0.04136771  0.66636963  0.54412168    -0.82600
C155        C  0.05809260  0.67288635  0.53086434     0.92800
O156        O  0.93180182  0.56130400  0.53845884    -0.82600
Mg157      Mg  0.97883131  0.57427441  0.45108430     1.58200
O158        O  0.98688330  0.66523883  0.55603642    -0.81000
O159        O  0.04055080  0.56446410  0.43288737    -0.82700
N160        N  0.77432131  0.49516219  0.40195778    -0.03400
C161        C  0.75383008  0.50417879  0.41008742    -0.00800
C162        C  0.73550076  0.49803838  0.39550516    -0.23700
C163        C  0.74488966  0.48497650  0.37772353    -0.23900
C164        C  0.76866105  0.48348082  0.38204038    -0.00900
H165        H  0.71720152  0.50245991  0.39772093     0.12900
H166        H  0.73535710  0.47698585  0.36343153     0.12900
N167        N  0.10603571  0.69135078  0.27203764    -0.03400
C168        C  0.09581306  0.68401838  0.25167655    -0.00800
C169        C  0.10698578  0.69441477  0.23271845    -0.23700
C170        C  0.12410372  0.70876212  0.24149925    -0.23900
C171        C  0.12332162  0.70650202  0.26559480    -0.00900
H172        H  0.10332039  0.69158801  0.21432143     0.12900
H173        H  0.13600954  0.71956021  0.23137747     0.12900
N174        N  0.91519414  0.82509780  0.61779885    -0.03400
C175        C  0.92536683  0.84510460  0.60968701    -0.00800
C176        C  0.91680228  0.86422392  0.62168818    -0.23700
C177        C  0.90113884  0.85583368  0.63792570    -0.23900
C178        C  0.90053496  0.83187980  0.63525575    -0.00900
H179        H  0.92163890  0.88235083  0.61902280     0.12900
H180        H  0.89122742  0.86606369  0.65036533     0.12900
O181        O  0.09125392  0.94502205  0.47191634    -0.88200
C182        C  0.06865955  0.01233876  0.47448310     0.87800
Mg183      Mg  0.10495718  0.92779502  0.50241705     1.58100
O184        O  0.12317566  0.00522465  0.44697352    -0.88000
O185        O  0.10303942  0.95483575  0.43658593    -0.75300
C186        C  0.17731013  0.00546749  0.55147938     0.92800
O187        O  0.06598092  0.97132798  0.51449837    -0.75100
O188        O  0.16432053  0.98835357  0.55764036    -0.82600
Mg189      Mg  0.05792560  0.96205550  0.47609761     1.58000
C190        C  0.17945430  0.04723176  0.46156062     0.92800
O191        O  0.04533893  0.95274689  0.43834542    -0.80900
H192        H  0.14292960  0.98932146  0.42291373    -0.06200
C193        C  0.12401263  0.02523298  0.51470145     0.87700
O194        O  0.14268153  0.93598206  0.49144082    -0.75400
O195        O  0.07439681  0.99403762  0.46449923    -0.88200
O196        O  0.15855655  0.04907643  0.45357326    -0.81000
C197        C  0.08626186  0.05151511  0.42249757     0.92900
C198        C  0.04564341  0.96248867  0.41810779     0.92700
Mg199      Mg  0.16651575  0.00190242  0.49306493     1.58000
O200        O  0.17830897  0.01274069  0.53030894    -0.80900
O201        O  0.15832115  0.99168683  0.45492035    -0.75100
O202        O  0.07915714  0.03037966  0.42206197    -0.81000
O203        O  0.04035690  0.92872220  0.49011283    -0.82700
O204        O  0.14414893  0.93506195  0.55029390    -0.81000
C205        C  0.14149934  0.99548667  0.44074526     0.87200
O206        O  0.15057441  0.97063785  0.50570969    -0.88100
O207        O  0.13379196  0.02008900  0.49604702    -0.88300
O208        O  0.12116249  0.01042172  0.53119227    -0.75300
Mg209      Mg  0.09160412  0.99304698  0.43107701     1.58000
O210        O  0.10475450  0.05735498  0.43363821    -0.82700
H211        H  0.10680733  0.92227909  0.45045036    -0.06400
O212        O  0.10191402  0.95976961  0.52162987    -0.88000
H213        H  0.08161081  0.97384821  0.54638574    -0.06200
H214        H  0.17461466  0.95140527  0.48920658    -0.06400
C215        C  0.08317604  0.96825811  0.52835286     0.87100
C216        C  0.10033103  0.93985153  0.45293178     0.87700
C217        C  0.15683435  0.95261377  0.49558394     0.87800
H218        H  0.11704815  0.04264845  0.51676119    -0.06400
O219        O  0.08286187  0.02935218  0.47698147    -0.75400
Mg220      Mg  0.13270957  0.97261054  0.53874759     1.58000
H221        H  0.05118037  0.01376181  0.48166659    -0.06400
C222        C  0.04730480  0.91542845  0.50675489     0.92800
O223        O  0.12007744  0.90914026  0.53380624    -0.82600
C224        C  0.13598430  0.91430372  0.54852912     0.92800
O225        O  0.05935883  0.97936003  0.41335813    -0.82600
Mg226      Mg  0.12079848  0.03774203  0.46527561     1.58200
O227        O  0.06846416  0.91550462  0.51388571    -0.81000
O228        O  0.18442031  0.03364291  0.47856875    -0.82700
N229        N  0.18713805  0.77230970  0.63733222    -0.03400
C230        C  0.17755320  0.75136135  0.63142434    -0.00800
C231        C  0.18453132  0.73427445  0.64717861    -0.23700
C232        C  0.19856655  0.74504849  0.66348659    -0.23900
C233        C  0.19980323  0.76837319  0.65713013    -0.00900
H234        H  0.17970989  0.71597032  0.64694352     0.12900
H235        H  0.20711060  0.73674755  0.67829913     0.12900
N236        N  0.32861522  0.11709773  0.39938982    -0.03400
C237        C  0.34917096  0.10694764  0.40586015    -0.00800
C238        C  0.36780755  0.11854491  0.39559485    -0.23700
C239        C  0.35848647  0.13627911  0.38223702    -0.23900
C240        C  0.33441254  0.13526728  0.38498180    -0.00900
H241        H  0.38624075  0.11468388  0.39780941     0.12900
H242        H  0.36825540  0.14862606  0.37160705     0.12900
N243        N  0.98551383  0.90364882  0.26584073    -0.03400
C244        C  0.99530509  0.91188066  0.24561748    -0.00800
C245        C  0.98402736  0.90230651  0.22643441    -0.23700
C246        C  0.96685935  0.88776293  0.23501466    -0.23900
C247        C  0.96805552  0.88891033  0.25917325    -0.00900
H248        H  0.98743835  0.90606500  0.20812345     0.12900
H249        H  0.95446904  0.87777142  0.22474571     0.12900
O250        O  0.63245343  0.50533821  0.94178159    -0.88200
C251        C  0.62909189  0.52452225  0.01012142     0.87800
Mg252      Mg  0.60199825  0.49412951  0.92339043     1.58100
O253        O  0.65495042  0.46935311  0.00160186    -0.88000
O254        O  0.66681068  0.49142068  0.95196028    -0.75300
C255        C  0.54989672  0.41789061  0.99548739     0.92800
O256        O  0.59047272  0.53027248  0.96912940    -0.75100
O257        O  0.54530467  0.43091883  0.97787209    -0.82600
Mg258      Mg  0.62932090  0.53753966  0.96051237     1.58000
C259        C  0.63677753  0.41292490  0.04204760     0.92800
O260        O  0.66785842  0.54798141  0.95150048    -0.80900
H261        H  0.67952390  0.44972704  0.98636606    -0.06200
C262        C  0.58629022  0.46879186  0.01961908     0.87700
O263        O  0.61202972  0.45557564  0.92938868    -0.75400
O264        O  0.63954151  0.51912212  0.99192923    -0.88200
O265        O  0.64488334  0.43354166  0.04484519    -0.81000
C266        C  0.68035865  0.50193166  0.04966569     0.92900
C267        C  0.68785159  0.54600168  0.96144559     0.92700
Mg268      Mg  0.60845786  0.42783558  0.99488679     1.58000
O269        O  0.57053664  0.41677411  0.00406618    -0.80900
O270        O  0.64713826  0.43505271  0.98642786    -0.75100
O271        O  0.68193843  0.50998684  0.02883159    -0.81000
O272        O  0.61641575  0.55770561  0.92816624    -0.82700
O273        O  0.55480954  0.45500058  0.92703094    -0.81000
C274        C  0.66140387  0.45130531  0.99162638     0.87200
O275        O  0.59757621  0.44572426  0.96368772    -0.88100
O276        O  0.60520515  0.45977452  0.01420555    -0.88300
O277        O  0.57023228  0.47243723  0.00457216    -0.75300
Mg278      Mg  0.67211841  0.50065477  0.99086529     1.58000
O279        O  0.66629055  0.48534786  0.05481727    -0.82700
H280        H  0.65376718  0.48972098  0.91886829    -0.06400
O281        O  0.58256140  0.49532191  0.95550611    -0.88000
H282        H  0.55822362  0.51527823  0.97072710    -0.06200
H283        H  0.61411778  0.42282289  0.94313973    -0.06400
C284        C  0.57623845  0.51361818  0.96510918     0.87100
C285        C  0.65108524  0.49555952  0.93668550     0.87700
C286        C  0.60786870  0.44051339  0.94534686     0.87800
H287        H  0.58358320  0.47430040  0.03752148    -0.06400
O288        O  0.62513944  0.50973151  0.02639145    -0.75400
Mg289      Mg  0.56469513  0.46370676  0.96559107     1.58000
H290        H  0.62259152  0.54214484  0.01196039    -0.06400
C291        C  0.59949842  0.55261472  0.91446354     0.92800
O292        O  0.57067931  0.48163578  0.90349743    -0.82600
C293        C  0.55649303  0.46483136  0.90695077     0.92800
O294        O  0.69091169  0.53287103  0.97918645    -0.82600
Mg295      Mg  0.63518387  0.47138359  0.03363585     1.58200
O296        O  0.59152065  0.53183105  0.91321719    -0.81000
O297        O  0.62113061  0.40844287  0.02680485    -0.82700
N298        N  0.48359557  0.40402822  0.75913687    -0.03400
C299        C  0.48979798  0.41189138  0.73749499    -0.00800
C300        C  0.47929837  0.39818262  0.72051197    -0.23700
C301        C  0.46618837  0.38151691  0.73213375    -0.23900
C302        C  0.46918678  0.38548288  0.75582105    -0.00900
H303        H  0.48112797  0.39997696  0.70169330     0.12900
H304        H  0.45555654  0.36802188  0.72419166     0.12900
N305        N  0.68962012  0.26160506  0.11175188    -0.03400
C306        C  0.68199664  0.24138558  0.10207149    -0.00800
C307        C  0.69236209  0.22245382  0.11309376    -0.23700
C308        C  0.70692266  0.23138441  0.13010424    -0.23900
C309        C  0.70504909  0.25545625  0.12879183    -0.00900
H310        H  0.68928320  0.20414776  0.10947831     0.12900
H311        H  0.71766458  0.22142052  0.14219468     0.12900
N312        N  0.83649363  0.62212145  0.90935603    -0.03400
C313        C  0.85695500  0.61350412  0.91788766    -0.00800
C314        C  0.87564007  0.62586688  0.90853821    -0.23700
C315        C  0.86632513  0.64228638  0.89344325    -0.23900
C316        C  0.84229088  0.63953100  0.89425827    -0.00900
H317        H  0.89404949  0.62310128  0.91214892     0.12900
H318        H  0.87600704  0.65471453  0.88283165     0.12900
O319        O  0.97322294  0.50937390  0.14656512    -0.88200
C320        C  0.97240171  0.53025367  0.07885468     0.87800
Mg321      Mg  0.00513276  0.49830352  0.16243744     1.58100
O322        O  0.94878259  0.47415808  0.08727251    -0.88000
O323        O  0.93905189  0.49381596  0.13816110    -0.75300
C324        C  0.05493337  0.42536777  0.08506924     0.92800
O325        O  0.01295107  0.53647586  0.11764584    -0.75100
O326        O  0.06072642  0.43827389  0.10234422    -0.82600
Mg327      Mg  0.97441923  0.54239866  0.12868396     1.58000
C328        C  0.96604394  0.41895616  0.04380377     0.92800
O329        O  0.93597197  0.55182049  0.13972347    -0.80900
H330        H  0.92563436  0.45316769  0.10321920    -0.06200
C331        C  0.01586469  0.47654595  0.06449780     0.87700
O332        O  0.99577118  0.45975739  0.15548649    -0.75400
O333        O  0.96300127  0.52439658  0.09757518    -0.88200
O334        O  0.95645628  0.43916873  0.04235318    -0.81000
C335        C  0.92084646  0.50905426  0.04181028     0.92900
C336        C  0.91536011  0.54892231  0.13136166     0.92700
Mg337      Mg  0.99652332  0.43388482  0.08942889     1.58000
O338        O  0.03387983  0.42439335  0.07767609    -0.80900
O339        O  0.95825155  0.43936872  0.10044513    -0.75100
O340        O  0.92039793  0.51609278  0.06297212    -0.81000
O341        O  0.98861812  0.56184312  0.16110190    -0.82700
O342        O  0.05233203  0.45977513  0.15497015    -0.81000
C343        C  0.94335006  0.45549265  0.09690391     0.87200
O344        O  0.00857951  0.45133111  0.12022420    -0.88100
O345        O  0.99768139  0.46638891  0.07064639    -0.88300
O346        O  0.03263463  0.48035229  0.07871452    -0.75300
Mg347      Mg  0.93123651  0.50447552  0.10004930     1.58000
O348        O  0.93292859  0.49140149  0.03560782    -0.82700
H349        H  0.95411141  0.49205270  0.17038204    -0.06400
O350        O  0.02272743  0.50114188  0.12926367    -0.88000
H351        H  0.04541612  0.52261673  0.11323591    -0.06200
H352        H  0.99353698  0.42743265  0.14109522    -0.06400
C353        C  0.02786193  0.52007745  0.11996342     0.87100
C354        C  0.95539944  0.49851630  0.15256695     0.87700
C355        C  0.99935755  0.44533686  0.13896608     0.87800
H356        H  0.01727043  0.48294785  0.04666272    -0.06400
O357        O  0.97543216  0.51593400  0.06208359    -0.75400
Mg358      Mg  0.04086523  0.47020947  0.11706314     1.58000
H359        H  0.97867054  0.54801796  0.07685034    -0.06400
C360        C  0.00646099  0.55664538  0.17361828     0.92800
O361        O  0.03769823  0.48570472  0.18013394    -0.82600
C362        C  0.05126955  0.46880838  0.17540809     0.92800
O363        O  0.91135905  0.53491907  0.11458877    -0.82600
Mg364      Mg  0.96588450  0.47750362  0.05398670     1.58200
O365        O  0.01504279  0.53603493  0.17363875    -0.81000
O366        O  0.98280256  0.41487002  0.05792548    -0.82700
N367        N  0.76258685  0.62043673  0.17826946    -0.03400
C368        C  0.74243749  0.61327394  0.16765642    -0.00800
C369        C  0.72332745  0.62393468  0.17795117    -0.23700
C370        C  0.73185754  0.63808448  0.19535328    -0.23900
C371        C  0.75594975  0.63567407  0.19529891    -0.00900
H372        H  0.70505238  0.62127309  0.17362044     0.12900
H373        H  0.72155496  0.64876972  0.20707903     0.12900
N374        N  0.11671520  0.40889360  0.32662469    -0.03400
C375        C  0.11034102  0.41714000  0.34804600    -0.00800
C376        C  0.12338796  0.40638336  0.36545531    -0.23700
C377        C  0.13862548  0.39143186  0.35446990    -0.23900
C378        C  0.13423225  0.39330156  0.33071459    -0.00900
H379        H  0.12246571  0.40969887  0.38410800     0.12900
H380        H  0.15186103  0.38071274  0.36284375     0.12900
N381        N  0.90587770  0.26453830  0.98942710    -0.03400
C382        C  0.91448866  0.24453285  0.99926148    -0.00800
C383        C  0.90379377  0.22522045  0.98943381    -0.23700
C384        C  0.88840859  0.23340836  0.97284423    -0.23900
C385        C  0.89011609  0.25750778  0.97298274    -0.00900
H386        H  0.90710110  0.20705364  0.99369462     0.12900
H387        H  0.87722336  0.22290765  0.96173971     0.12900
O388        O  0.52862936  0.11526051  0.97835720    -0.88200
C389        C  0.47498645  0.16049377  0.98800893     0.87800
Mg390      Mg  0.52742848  0.09017034  0.95064265     1.58100
O391        O  0.47676071  0.11553264  0.03005479    -0.88000
O392        O  0.53052958  0.11558921  0.01688061    -0.75300
C393        C  0.42046342  0.04379602  0.95817368     0.92800
O394        O  0.49464571  0.13864238  0.94010126    -0.75100
O395        O  0.43660307  0.04652864  0.94297417    -0.82600
Mg396      Mg  0.52085316  0.15069147  0.96839333     1.58000
C397        C  0.41775131  0.07928525  0.04963255     0.92800
O398        O  0.54817117  0.16593324  0.99464817    -0.80900
H399        H  0.49437098  0.09811610  0.05495001    -0.06200
C400        C  0.43172910  0.10661603  0.97628204     0.87700
O401        O  0.51503272  0.06166415  0.97648652    -0.75400
O402        O  0.49333347  0.15047030  0.99382627    -0.88200
O403        O  0.42507455  0.10042353  0.04907060    -0.81000
C404        C  0.45638088  0.17187419  0.05051014     0.92900
C405        C  0.54844425  0.17291685  0.01589215     0.92700
Mg406      Mg  0.44994866  0.06540973  0.00469868     1.58000
O407        O  0.42296017  0.05107811  0.97909879    -0.80900
O408        O  0.47599154  0.07730229  0.03284023    -0.75100
O409        O  0.47723654  0.16968084  0.04284920    -0.81000
O410        O  0.54857218  0.15125367  0.93986536    -0.82700
O411        O  0.49192958  0.04579385  0.92715505    -0.81000
C412        C  0.48257859  0.09720832  0.04010787     0.87200
O413        O  0.47680592  0.06502616  0.97851714    -0.88100
O414        O  0.44148583  0.10060804  0.99477100    -0.88300
O415        O  0.43877325  0.09967050  0.95632931    -0.75300
Mg416      Mg  0.50283924  0.14209307  0.02916058     1.58000
O417        O  0.44148647  0.15533095  0.04903506    -0.82700
H418        H  0.55232063  0.09659550  0.99629830    -0.06400
O419        O  0.49228894  0.10044053  0.94294638    -0.88000
H420        H  0.47493248  0.11858470  0.91839630    -0.06200
H421        H  0.49430141  0.03986943  0.99558974    -0.06400
C422        C  0.48693860  0.11900934  0.93306749     0.87100
C423        C  0.53793317  0.10887178  0.99696571     0.87700
C424        C  0.49514629  0.05474895  0.98383130     0.87800
H425        H  0.41725851  0.11874448  0.97707169    -0.06400
O426        O  0.45503424  0.15380918  0.99543023    -0.75400
Mg427      Mg  0.46623993  0.07338300  0.94320905     1.58000
H428        H  0.47589084  0.17497309  0.97579485    -0.06400
C429        C  0.55104534  0.13710963  0.92286185     0.92800
O430        O  0.52671313  0.06269505  0.92238889    -0.82600
C431        C  0.51286625  0.04559364  0.91910134     0.92800
O432        O  0.53146037  0.16909779  0.02979205    -0.82600
Mg433      Mg  0.44165637  0.12621464  0.02185015     1.58200
O434        O  0.54252420  0.11647937  0.92361353    -0.81000
O435        O  0.42234402  0.06498896  0.03322257    -0.82700
N436        N  0.60317078  0.19203351  0.76352179    -0.03400
C437        C  0.59410679  0.18466702  0.74260099    -0.00800
C438        C  0.60614148  0.19504587  0.72422622    -0.23700
C439        C  0.62284246  0.20929614  0.73385549    -0.23900
C440        C  0.62083043  0.20721356  0.75791545    -0.00900
H441        H  0.60346413  0.19207937  0.70568431     0.12900
H442        H  0.63549339  0.21975848  0.72430306     0.12900
N443        N  0.41118982  0.33279319  0.10285849    -0.03400
C444        C  0.42149684  0.35306141  0.09575285    -0.00800
C445        C  0.41067280  0.37189654  0.10623852    -0.23700
C446        C  0.39297171  0.36296171  0.12000271    -0.23900
C447        C  0.39354004  0.33891266  0.11753881    -0.00900
H448        H  0.41517408  0.39017059  0.10407961     0.12900
H449        H  0.38113109  0.37291952  0.13088503     0.12900
N450        N  0.25983341  0.98735607  0.91482856    -0.03400
C451        C  0.23945609  0.99716744  0.92204220    -0.00800
C452        C  0.22073327  0.98649970  0.91098996    -0.23700
C453        C  0.22998093  0.96977067  0.89635263    -0.23900
C454        C  0.25407317  0.97061246  0.89902602    -0.00900
H455        H  0.20234697  0.99043356  0.91333668     0.12900
H456        H  0.22018326  0.95844404  0.88477609     0.12900
O457        O  0.64789080  0.62344996  0.58659828    -0.88200
C458        C  0.57962182  0.62193972  0.56666728     0.87800
Mg459      Mg  0.66588450  0.59270167  0.59760460     1.58100
O460        O  0.58866976  0.64540574  0.62274247    -0.88000
O461        O  0.63859842  0.65745473  0.60153866    -0.75300
C462        C  0.59312003  0.53821666  0.67165418     0.92800
O463        O  0.62008595  0.58262537  0.56032178    -0.75100
O464        O  0.60978139  0.53372123  0.65750018    -0.82600
Mg465      Mg  0.62927006  0.62135908  0.55396936     1.58000
C466        C  0.54783245  0.62631656  0.67926532     0.92800
O467        O  0.63874465  0.65973653  0.54397138    -0.80900
H468        H  0.60441839  0.66871520  0.64351193    -0.06200
C469        C  0.56923185  0.57726800  0.62080501     0.87700
O470        O  0.65922754  0.60155055  0.63631492    -0.75400
O471        O  0.59810628  0.63173464  0.57241568    -0.88200
O472        O  0.54557268  0.63545394  0.65881651    -0.81000
C473        C  0.54123117  0.67222543  0.58912386     0.92900
C474        C  0.62976396  0.68001735  0.54648628     0.92700
Mg475      Mg  0.59395661  0.59716961  0.66334501     1.58000
O476        O  0.58472304  0.55882913  0.67358227    -0.80900
O477        O  0.60308518  0.63589137  0.65718511    -0.75100
O478        O  0.56232541  0.67367825  0.58195826    -0.81000
O479        O  0.66150211  0.60852627  0.53393612    -0.82700
O480        O  0.66138167  0.54418600  0.63531010    -0.81000
C481        C  0.59862631  0.65084886  0.64121873     0.87200
O482        O  0.62494236  0.58657648  0.64528405    -0.88100
O483        O  0.57456809  0.59557251  0.63102188    -0.88300
O484        O  0.58418332  0.56131935  0.61665861    -0.75300
Mg485      Mg  0.59999903  0.66361710  0.59198975     1.58000
O486        O  0.53568348  0.65899174  0.60639196    -0.82700
H487        H  0.67137529  0.64378219  0.60270679    -0.06400
O488        O  0.63373020  0.57345619  0.59518503    -0.88000
H489        H  0.61825798  0.54999599  0.57439665    -0.06200
H490        H  0.64519898  0.60246111  0.66900063    -0.06400
C491        C  0.62407051  0.56784184  0.57659434     0.87100
C492        C  0.65348055  0.64164994  0.59683276     0.87700
C493        C  0.64319104  0.59675755  0.65105114     0.87800
H494        H  0.55143975  0.57503960  0.61464114    -0.06400
O495        O  0.56326701  0.61790801  0.58132910    -0.75400
Mg496      Mg  0.62294527  0.55456176  0.62592116     1.58000
H497        H  0.57755115  0.61610535  0.54877401    -0.06400
C498        C  0.67509493  0.59154463  0.53898030     0.92800
O499        O  0.68576312  0.56118329  0.61014469    -0.82600
C500        C  0.68186425  0.54657490  0.62658257     0.92800
O501        O  0.61293978  0.68369603  0.56060972    -0.82600
Mg502      Mg  0.55611374  0.62673074  0.62014048     1.58200
O503        O  0.67648350  0.58343901  0.55982058    -0.81000
O504        O  0.56229855  0.60983802  0.68325558    -0.82700
N505        N  0.68095606  0.83200986  0.47725977    -0.03400
C506        C  0.66899354  0.85135023  0.48387716    -0.00800
C507        C  0.67936696  0.87111154  0.47434148    -0.23700
C508        C  0.69829199  0.86361985  0.46145587    -0.23900
C509        C  0.69887846  0.83955233  0.46363839    -0.00900
H510        H  0.67387777  0.88905267  0.47669210     0.12900
H511        H  0.71021566  0.87449869  0.45145277     0.12900
N512        N  0.49462587  0.69482495  0.83110438    -0.03400
C513        C  0.50272681  0.68419032  0.85088233    -0.00800
C514        C  0.49507888  0.69590095  0.87052818    -0.23700
C515        C  0.48170840  0.71431803  0.86264799    -0.23900
C516        C  0.48162308  0.71337815  0.83837642    -0.00900
H517        H  0.49858961  0.69132549  0.88863969     0.12900
H518        H  0.47257184  0.72681067  0.87349953     0.12900
N519        N  0.82910619  0.47690716  0.69336047    -0.03400
C520        C  0.85053645  0.48461011  0.68611527    -0.00800
C521        C  0.86779790  0.47611773  0.70089927    -0.23700
C522        C  0.85675648  0.46312840  0.71795256    -0.23900
C523        C  0.83308052  0.46380371  0.71297492    -0.00900
H524        H  0.88646674  0.47914743  0.69945297     0.12900
H525        H  0.86510741  0.45397383  0.73236355     0.12900
O526        O  0.44643105  0.97498693  0.57879984    -0.88200
C527        C  0.51522821  0.97266990  0.56179370     0.87800
Mg528      Mg  0.43027462  0.00679671  0.58926255     1.58100
O529        O  0.50189846  0.94932934  0.61737468    -0.88000
O530        O  0.45254568  0.94009702  0.59351905    -0.75300
C531        C  0.50341629  0.05580997  0.66670708     0.92800
O532        O  0.47733061  0.01433861  0.55382323    -0.75100
O533        O  0.48694472  0.06155847  0.65266411    -0.82600
Mg534      Mg  0.46604383  0.97617747  0.54677918     1.58000
C535        C  0.54188188  0.96481746  0.67570309     0.92800
O536        O  0.45494027  0.93809821  0.53623499    -0.80900
H537        H  0.48374448  0.92689407  0.63734507    -0.06200
C538        C  0.52629012  0.01600976  0.61684580     0.87700
O539        O  0.43460101  0.99708675  0.62819775    -0.75400
O540        O  0.49595573  0.96378582  0.56642542    -0.88200
O541        O  0.54392470  0.95552472  0.65543494    -0.81000
C542        C  0.54872221  0.91855281  0.58727677     0.92900
C543        C  0.46341559  0.91752519  0.53882923     0.92700
Mg544      Mg  0.49874640  0.99721139  0.65808488     1.58000
O545        O  0.51050035  0.03468747  0.66851479    -0.80900
O546        O  0.48711651  0.95924978  0.65141962    -0.75100
O547        O  0.52835950  0.91921204  0.57818635    -0.81000
O548        O  0.43504109  0.99125227  0.52551120    -0.82700
O549        O  0.43572810  0.05439096  0.62771622    -0.81000
C550        C  0.49091190  0.94430036  0.63542955     0.87200
O551        O  0.46921356  0.00995804  0.63891700    -0.88100
O552        O  0.51920523  0.99789258  0.62650743    -0.88300
O553        O  0.51270001  0.03310106  0.61235903    -0.75300
Mg554      Mg  0.49118020  0.93194938  0.58601118     1.58000
O555        O  0.55438355  0.93207003  0.60410033    -0.82700
H556        H  0.42074364  0.95593215  0.59319118    -0.06400
O557        O  0.46360100  0.02403117  0.58842579    -0.88000
H558        H  0.48126153  0.04657047  0.56810251    -0.06200
H559        H  0.44695380  0.99496818  0.66152410    -0.06400
C560        C  0.47414357  0.02914539  0.57011663     0.87100
C561        C  0.43903197  0.95699101  0.58837073     0.87700
C562        C  0.45015156  0.00076902  0.64373439     0.87800
H563        H  0.54446673  0.01713827  0.61157107    -0.06400
O564        O  0.53103075  0.97542490  0.57733255    -0.75400
Mg565      Mg  0.47400397  0.04203629  0.61995237     1.58000
H566        H  0.51853815  0.97878394  0.54411153    -0.06400
C567        C  0.42293560  0.00930747  0.53051114     0.92800
O568        O  0.41215766  0.03946070  0.60064659    -0.82600
C569        C  0.41578927  0.05340253  0.61753122     0.92800
O570        O  0.47925819  0.91296699  0.55382537    -0.82600
Mg571      Mg  0.53580054  0.96561942  0.61643435     1.58200
O572        O  0.42191794  0.01719771  0.55132311    -0.81000
O573        O  0.52878085  0.98244144  0.67918859    -0.82700
N574        N  0.40524655  0.76267938  0.48260856    -0.03400
C575        C  0.41306542  0.74171755  0.49100662    -0.00800
C576        C  0.40293759  0.72369988  0.47836078    -0.23700
C577        C  0.38817228  0.73374779  0.46215027    -0.23900
C578        C  0.38989042  0.75758897  0.46512328    -0.00900
H579        H  0.40610127  0.70516188  0.48053826     0.12900
H580        H  0.37733489  0.72466506  0.44954695     0.12900
N581        N  0.26642084  0.11591037  0.68315213    -0.03400
C582        C  0.24647025  0.10457834  0.67691702    -0.00800
C583        C  0.22753355  0.11381679  0.68874152    -0.23700
C584        C  0.23613805  0.13130188  0.70280839    -0.23900
C585        C  0.26007314  0.13242849  0.69898579    -0.00900
H586        H  0.20940052  0.10847759  0.68721180     0.12900
H587        H  0.22600947  0.14197460  0.71468492     0.12900
N588        N  0.59727812  0.89764474  0.82880903    -0.03400
C589        C  0.58818882  0.90481644  0.84966747    -0.00800
C590        C  0.59974099  0.89380184  0.86801814    -0.23700
C591        C  0.61637315  0.87951725  0.85825147    -0.23900
C592        C  0.61459723  0.88226575  0.83425403    -0.00900
H593        H  0.59710463  0.89664136  0.88658058     0.12900
H594        H  0.62894376  0.86882615  0.86764084     0.12900
C595        C  0.31945239  0.26622048  0.84907886     0.80300
N596        N  0.31492873  0.24850728  0.83376420    -0.78000
C597        C  0.32874464  0.24485459  0.81465711     0.82800
N598        N  0.34700460  0.25959176  0.81059262    -0.77900
C599        C  0.35193087  0.27732876  0.82555768     0.82900
N600        N  0.33797062  0.28071877  0.84462779    -0.79600
C601        C  0.28166649  0.18725104  0.72935538    -0.11300
C602        C  0.29988171  0.17847489  0.74332821     0.15300
C603        C  0.30694972  0.15496047  0.74037895     0.02200
C604        C  0.29470899  0.14050175  0.72465741    -0.15600
C605        C  0.27574788  0.14910205  0.71143849    -0.10500
C606        C  0.26984360  0.17308263  0.71330952     0.08900
C607        C  0.30977928  0.19408513  0.76170862     0.09900
S608        S  0.33099264  0.14227697  0.75653553    -0.24800
H609        H  0.29939729  0.12218699  0.72351817     0.20200
S610        S  0.24708750  0.18684102  0.69610239    -0.30500
H611        H  0.27628626  0.20531650  0.73130211     0.10500
C612        C  0.32224332  0.21456230  0.75575700     0.03700
C613        C  0.32866884  0.23038315  0.77342171    -0.12800
C614        C  0.32303870  0.22627633  0.79716549    -0.08400
C615        C  0.31158947  0.20502772  0.80314016     0.07100
C616        C  0.30483048  0.18945199  0.78539989    -0.13500
S617        S  0.32994803  0.22056824  0.72557138    -0.30500
H618        H  0.33761018  0.24639008  0.76855592     0.11400
S619        S  0.30565595  0.19629666  0.83297645    -0.27600
H620        H  0.29541885  0.17362900  0.79008766     0.08600
H621        H  0.24830600  0.17150525  0.67701665     0.27100
H622        H  0.34217972  0.24152301  0.72965778     0.21900
H623        H  0.32701968  0.20481791  0.84185969     0.27200
H624        H  0.34336668  0.16327195  0.75986926     0.16000
C625        C  0.56211105  0.91209168  0.77474717    -0.11300
C626        C  0.57905015  0.92299132  0.76057369     0.15300
C627        C  0.60227448  0.92492527  0.76900532     0.02200
C628        C  0.60783851  0.91641955  0.79143324    -0.15600
C629        C  0.59087571  0.90553177  0.80559153    -0.10500
C630        C  0.56782787  0.90301863  0.79687728     0.08900
C631        C  0.57152862  0.93327967  0.73776802     0.09900
S632        S  0.62556779  0.93799803  0.75204882    -0.24800
H633        H  0.62552026  0.91843662  0.79802822     0.20200
S634        S  0.54500074  0.88807470  0.81282748    -0.30500
H635        H  0.54425434  0.91058267  0.76844808     0.10500
C636        C  0.56325773  0.91925277  0.71921393     0.03700
C637        C  0.55479765  0.92993355  0.69859744    -0.12800
C638        C  0.55425923  0.95440661  0.69617081    -0.08400
C639        C  0.56349711  0.96832293  0.71447622     0.07100
C640        C  0.57173860  0.95765722  0.73505149    -0.13500
S641        S  0.56345313  0.88774735  0.72179845    -0.30500
H642        H  0.54778146  0.91921604  0.68465610     0.11400
S643        S  0.56561027  0.99975828  0.71260890    -0.27600
H644        H  0.57824417  0.96848035  0.74918549     0.08600
H645        H  0.55994166  0.87295344  0.82520711     0.27100
H646        H  0.55268702  0.88308445  0.70011384     0.21900
H647        H  0.57005761  0.00045332  0.68833577     0.27200
H648        H  0.61658483  0.93182572  0.72995684     0.16000
C649        C  0.32401169  0.11812448  0.65116470    -0.11300
C650        C  0.33350074  0.09637064  0.65752954     0.15300
C651        C  0.32130937  0.08194922  0.67361830     0.02200
C652        C  0.29944471  0.08899213  0.68197352    -0.15600
C653        C  0.28958703  0.11035628  0.67507557    -0.10500
C654        C  0.30208762  0.12518126  0.65964919     0.08900
C655        C  0.35458001  0.08777972  0.64520293     0.09900
S656        S  0.33229287  0.05396377  0.68340999    -0.24800
H657        H  0.28983010  0.07766041  0.69385473     0.20200
S658        S  0.29040080  0.15252991  0.64916657    -0.30500
H659        H  0.33320845  0.12913190  0.63864911     0.10500
C660        C  0.35257020  0.07051891  0.62785443     0.03700
C661        C  0.37285995  0.06054685  0.61850842    -0.12800
C662        C  0.39542027  0.06743006  0.62597854    -0.08400
C663        C  0.39724641  0.08613307  0.64214272     0.07100
C664        C  0.37683379  0.09586480  0.65175182    -0.13500
S665        S  0.32405126  0.06084697  0.61789836    -0.30500
H666        H  0.37095101  0.04672914  0.60577158     0.11400
S667        S  0.42480231  0.09861775  0.65110912    -0.27600
H668        H  0.37829375  0.10955113  0.66473410     0.08600
H669        H  0.26681212  0.14551315  0.64960380     0.27100
H670        H  0.33192555  0.04220495  0.60398329     0.21900
H671        H  0.43432651  0.09863271  0.62833507     0.27200
H672        H  0.35620114  0.05941447  0.68106933     0.16000
C673        C  0.41678239  0.81704978  0.51800243    -0.11300
C674        C  0.42683771  0.83176184  0.50092636     0.15300
C675        C  0.42961734  0.82331543  0.47785494     0.02200
C676        C  0.42258597  0.80051198  0.47252520    -0.15600
C677        C  0.41228866  0.78588703  0.48948312    -0.10500
C678        C  0.40915470  0.79442718  0.51248785     0.08900
C679        C  0.43557249  0.85516357  0.50810955     0.09900
S680        S  0.44186938  0.84073675  0.45439884    -0.24800
H681        H  0.42512467  0.79401715  0.45489359     0.20200
S682        S  0.39523197  0.77776015  0.53547746    -0.30500
H683        H  0.41478125  0.82331616  0.53580285     0.10500
C684        C  0.42035950  0.87264957  0.51657810     0.03700
C685        C  0.42973062  0.89374463  0.52501282    -0.12800
C686        C  0.45400805  0.89766103  0.52520277    -0.08400
C687        C  0.46906983  0.88074480  0.51537291     0.07100
C688        C  0.45972806  0.85962211  0.50716177    -0.13500
S689        S  0.38903860  0.86804672  0.51683641    -0.30500
H690        H  0.41824168  0.90675034  0.53253280     0.11400
S691        S  0.50021097  0.88608771  0.51301119    -0.27600
H692        H  0.47129133  0.84626272  0.50040547     0.08600
H693        H  0.38142674  0.76402999  0.52061531     0.27100
H694        H  0.38295710  0.88989231  0.52626642     0.21900
H695        H  0.50577476  0.86568498  0.50052255     0.27200
H696        H  0.43393158  0.86239348  0.46280421     0.16000
C697        C  0.61122720  0.87006401  0.50999058    -0.11300
C698        C  0.61464499  0.86433935  0.53368829     0.15300
C699        C  0.63398905  0.85024485  0.54008343     0.02200
C700        C  0.65082974  0.84450354  0.52310460    -0.15600
C701        C  0.64845564  0.85219636  0.49978583    -0.10500
C702        C  0.62784997  0.86405953  0.49297783     0.08900
C703        C  0.59904438  0.87567140  0.55111656     0.09900
S704        S  0.63867973  0.84011215  0.56971283    -0.24800
H705        H  0.66646043  0.83511374  0.52839516     0.20200
S706        S  0.62298110  0.87223681  0.46269164    -0.30500
H707        H  0.59608397  0.88037584  0.50505825     0.10500
C708        C  0.60643368  0.89551244  0.56377409     0.03700
C709        C  0.58998150  0.90846505  0.57669587    -0.12800
C710        C  0.56620670  0.90199102  0.57727819    -0.08400
C711        C  0.55937919  0.88092360  0.56608777     0.07100
C712        C  0.57566835  0.86840640  0.55275687    -0.13500
S713        S  0.63645825  0.90541702  0.56198129    -0.30500
H714        H  0.59542933  0.92440417  0.58528534     0.11400
S715        S  0.53027019  0.86879311  0.56828444    -0.27600
H716        H  0.57001140  0.85300573  0.54330257     0.08600
H717        H  0.60028421  0.88131442  0.46567246     0.27100
H718        H  0.63439527  0.92382895  0.57810371     0.21900
H719        H  0.52664504  0.87605686  0.59154902     0.27200
H720        H  0.61502840  0.84087961  0.57654815     0.16000
C721        C  0.52069813  0.63325696  0.73990069    -0.11300
C722        C  0.51558792  0.65724514  0.74016205     0.15300
C723        C  0.51884009  0.67043527  0.71933865     0.02200
C724        C  0.52842441  0.65975152  0.69942109    -0.15600
C725        C  0.53429842  0.63587021  0.69940793    -0.10500
C726        C  0.52920631  0.62234750  0.71971145     0.08900
C727        C  0.50866368  0.66815018  0.76283438     0.09900
S728        S  0.51136900  0.70100113  0.71711881    -0.24800
H729        H  0.53187979  0.67038673  0.68400598     0.20200
S730        S  0.53252780  0.59102402  0.72100431    -0.30500
H731        H  0.51812656  0.62288780  0.75567420     0.10500
C732        C  0.48882428  0.66054296  0.77560650     0.03700
C733        C  0.48427126  0.67004649  0.79781295    -0.12800
C734        C  0.49888232  0.68719714  0.80748029    -0.08400
C735        C  0.51845272  0.69514959  0.79453702     0.07100
C736        C  0.52312040  0.68552854  0.77247442    -0.13500
S737        S  0.46898764  0.63909249  0.76354072    -0.30500
H738        H  0.46934178  0.66405164  0.80785623     0.11400
S739        S  0.53836678  0.71728929  0.80502285    -0.27600
H740        H  0.53850943  0.69129074  0.76291648     0.08600
H741        H  0.52583939  0.58733520  0.69754344     0.27100
H742        H  0.45425396  0.63719502  0.78323830     0.21900
H743        H  0.53168631  0.71711706  0.82865413     0.27200
H744        H  0.49302120  0.70021354  0.73356648     0.16000
C745        C  0.50584739  0.70318655  0.54116401    -0.11300
C746        C  0.48724158  0.71280424  0.55394577     0.15300
C747        C  0.48668462  0.70930489  0.57856069     0.02200
C748        C  0.50421013  0.69587180  0.58956528    -0.15600
C749        C  0.52287765  0.68625999  0.57674021    -0.10500
C750        C  0.52366425  0.69018854  0.55214485     0.08900
C751        C  0.46737952  0.72351969  0.54054551     0.09900
S752        S  0.46421851  0.72167550  0.59693643    -0.24800
H753        H  0.50345730  0.69322603  0.60839435     0.20200
S754        S  0.54619931  0.67726224  0.53404630    -0.30500
H755        H  0.50589831  0.70519349  0.52226248     0.10500
C756        C  0.47053122  0.74251068  0.52483076     0.03700
C757        C  0.45211778  0.74922117  0.50971649    -0.12800
C758        C  0.43040481  0.73761277  0.51022634    -0.08400
C759        C  0.42680370  0.71987392  0.52737078     0.07100
C760        C  0.44531945  0.71282097  0.54185907    -0.13500
S761        S  0.49808960  0.75802665  0.52376583    -0.30500
H762        H  0.45505236  0.76275886  0.49670923     0.11400
S763        S  0.39915051  0.70507681  0.53170008    -0.27600
H764        H  0.44263870  0.69835499  0.55392989     0.08600
H765        H  0.53967597  0.68792045  0.51272429     0.27100
H766        H  0.49109661  0.77526902  0.50751409     0.21900
H767        H  0.38488587  0.72328044  0.52335640     0.27200
H768        H  0.45938459  0.74097600  0.58232596     0.16000
C769        C  0.65765892  0.72028843  0.50048455    -0.11300
C770        C  0.65758351  0.74158179  0.51263750     0.15300
C771        C  0.64846696  0.74234889  0.53560649     0.02200
C772        C  0.63993791  0.72192232  0.54599044    -0.15600
C773        C  0.63963541  0.70055476  0.53391772    -0.10500
C774        C  0.64864178  0.69980204  0.51078809     0.08900
C775        C  0.66590688  0.76311410  0.50083355     0.09900
S776        S  0.64703352  0.76885469  0.55265978    -0.24800
H777        H  0.63329081  0.72281439  0.56377375     0.20200
S778        S  0.64814033  0.67374889  0.49315305    -0.30500
H779        H  0.66435514  0.71975348  0.48270416     0.10500
C780        C  0.68674329  0.77437291  0.50782062     0.03700
C781        C  0.69171276  0.79684103  0.49918900    -0.12800
C782        C  0.67621015  0.80821326  0.48384560    -0.08400
C783        C  0.65612492  0.79633676  0.47575368     0.07100
C784        C  0.65113221  0.77394819  0.48440248    -0.13500
S785        S  0.70659388  0.76038707  0.52819113    -0.30500
H786        H  0.70730678  0.80598018  0.50488421     0.11400
S787        S  0.63607709  0.80884999  0.45472884    -0.27600
H788        H  0.63517382  0.76523746  0.47895077     0.08600
H789        H  0.62594001  0.66629858  0.50090755     0.27100
H790        H  0.72160438  0.77967471  0.53119845     0.21900
H791        H  0.65170714  0.82516495  0.44491286     0.27200
H792        H  0.64307527  0.78425683  0.53377630     0.16000
C793        C  0.72075010  0.50374677  0.66129375    -0.11300
C794        C  0.74311586  0.51115164  0.65419449     0.15300
C795        C  0.74509295  0.52917820  0.63736688     0.02200
C796        C  0.72486400  0.53951385  0.62825888    -0.15600
C797        C  0.70226634  0.53294122  0.63591584    -0.10500
C798        C  0.70030599  0.51448927  0.65259641     0.08900
C799        C  0.76413579  0.50021462  0.66495393     0.09900
S800        S  0.77293642  0.54041495  0.62729970    -0.24800
H801        H  0.72703329  0.55350296  0.61555379     0.20200
S802        S  0.67222265  0.50400591  0.66294728    -0.30500
H803        H  0.71942296  0.48961812  0.67394412     0.10500
C804        C  0.76958350  0.50362045  0.68881662     0.03700
C805        C  0.79054170  0.49459517  0.69790053    -0.12800
C806        C  0.80655975  0.48277924  0.68356915    -0.08400
C807        C  0.80069188  0.47863406  0.65981228     0.07100
C808        C  0.77955220  0.48736216  0.65084107    -0.13500
S809        S  0.75082072  0.52104347  0.70730480    -0.30500
H810        H  0.79524092  0.49787092  0.71597932     0.11400
S811        S  0.81889608  0.46220127  0.63997962    -0.27600
H812        H  0.77524189  0.48450341  0.63256062     0.08600
H813        H  0.68074997  0.48918057  0.68077699     0.27100
H814        H  0.76375059  0.51821750  0.72814510     0.21900
H815        H  0.83307688  0.45139780  0.65697165     0.27200
H816        H  0.78465630  0.53786478  0.64885610     0.16000
C817        C  0.54432713  0.15181174  0.71316420    -0.11300
C818        C  0.54730556  0.12913887  0.72213106     0.15300
C819        C  0.56345892  0.12568711  0.74072137     0.02200
C820        C  0.57742600  0.14444087  0.74851629    -0.15600
C821        C  0.57536576  0.16685845  0.73848283    -0.10500
C822        C  0.55773145  0.17062180  0.72128676     0.08900
C823        C  0.53548083  0.10938396  0.70967139     0.09900
S824        S  0.56755684  0.09761526  0.75465896    -0.24800
H825        H  0.59076539  0.14119512  0.76165569     0.20200
S826        S  0.55174075  0.19881725  0.70814034    -0.30500
H827        H  0.53198048  0.15476815  0.69900587     0.10500
C828        C  0.51085064  0.10802520  0.70726462     0.03700
C829        C  0.50081727  0.09056473  0.69303927    -0.12800
C830        C  0.51482342  0.07416679  0.68126548    -0.08400
C831        C  0.53947012  0.07556798  0.68380400     0.07100
C832        C  0.54941947  0.09292290  0.69798816    -0.13500
S833        S  0.49212442  0.12810586  0.72282856    -0.30500
H834        H  0.48196042  0.08947358  0.69128539     0.11400
S835        S  0.55933279  0.05670814  0.66822404    -0.27600
H836        H  0.56832619  0.09415946  0.69922072     0.08600
H837        H  0.56094780  0.21249728  0.72629366     0.27100
H838        H  0.47067387  0.11931448  0.71446468     0.21900
H839        H  0.54610533  0.05631794  0.64739480     0.27200
H840        H  0.54482761  0.08922108  0.75015237     0.16000
C841        C  0.37110672  0.01195385  0.92564156    -0.11300
C842        C  0.35226264  0.01619677  0.94076480     0.15300
C843        C  0.35610092  0.02825923  0.96186691     0.02200
C844        C  0.37849484  0.03657399  0.96699822    -0.15600
C845        C  0.39758538  0.03292916  0.95174234    -0.10500
C846        C  0.39377930  0.02006635  0.93084972     0.08900
C847        C  0.32855823  0.00882483  0.93359686     0.09900
S848        S  0.33301355  0.03439808  0.98259887    -0.24800
H849        H  0.38082035  0.04636785  0.98305832     0.20200
S850        S  0.41732427  0.01350094  0.91071950    -0.30500
H851        H  0.36785112  0.00253710  0.90952675     0.10500
C852        C  0.31289709  0.02472464  0.92302978     0.03700
C853        C  0.29028824  0.01723790  0.91715216    -0.12800
C854        C  0.28299878  0.99427328  0.92184935    -0.08400
C855        C  0.29861225  0.97850786  0.93285395     0.07100
C856        C  0.32138570  0.98581262  0.93816864    -0.13500
S857        S  0.32177985  0.05446736  0.91694530    -0.30500
H858        H  0.27816942  0.02916680  0.90871904     0.11400
S859        S  0.29023126  0.94935836  0.94158774    -0.27600
H860        H  0.33337570  0.97374303  0.94664736     0.08600
H861        H  0.40414556  0.00011804  0.89481399     0.27100
H862        H  0.30078704  0.06162246  0.90613833     0.21900
H863        H  0.26627313  0.95425643  0.94444961     0.27200
H864        H  0.31938503  0.01448619  0.97794809     0.16000
C865        C  0.55296093  0.00006689  0.89094682    -0.11300
C866        C  0.53679881  0.98544065  0.87974418     0.15300
C867        C  0.51263487  0.99040623  0.88179582     0.02200
C868        C  0.50530481  0.00994419  0.89472237    -0.15600
C869        C  0.52154087  0.02490976  0.90570702    -0.10500
C870        C  0.54579773  0.01953465  0.90393700     0.08900
C871        C  0.54609643  0.96409241  0.86814962     0.09900
S872        S  0.49031606  0.97258120  0.86835027    -0.24800
H873        H  0.48672435  0.01359046  0.89598883     0.20200
S874        S  0.56805445  0.03605077  0.91936128    -0.30500
H875        H  0.57138807  0.99569822  0.88998978     0.10500
C876        C  0.56209133  0.96556931  0.84930140     0.03700
C877        C  0.57436422  0.94551059  0.84222711    -0.12800
C878        C  0.57073099  0.92381804  0.85333410    -0.08400
C879        C  0.55309605  0.92205815  0.87078120     0.07100
C880        C  0.54130865  0.94217770  0.87817948    -0.13500
S881        S  0.56752716  0.99322025  0.83481499    -0.30500
H882        H  0.58792316  0.94712894  0.82906868     0.11400
S883        S  0.54517644  0.89486018  0.88492363    -0.27600
H884        H  0.52891507  0.94087545  0.89253146     0.08600
H885        H  0.58772927  0.02373564  0.91122767     0.27100
H886        H  0.58305631  0.98469438  0.81772516     0.21900
H887        H  0.55231709  0.88024253  0.86656534     0.27200
H888        H  0.50424982  0.96443621  0.84978923     0.16000
C889        C  0.58200893  0.13869474  0.86352239    -0.11300
C890        C  0.57941231  0.16232631  0.85730668     0.15300
C891        C  0.56933189  0.17785692  0.87361595     0.02200
C892        C  0.56109026  0.16925991  0.89512911    -0.15600
C893        C  0.56293093  0.14543052  0.90113511    -0.10500
C894        C  0.57432364  0.13017794  0.88530107     0.08900
C895        C  0.58591560  0.16989601  0.83319487     0.09900
S896        S  0.56605995  0.20875266  0.86788709    -0.24800
H897        H  0.55256716  0.18127445  0.90701378     0.20200
S898        S  0.58000550  0.09982038  0.89181333    -0.30500
H899        H  0.58994261  0.12672629  0.85118739     0.10500
C900        C  0.60929743  0.16947243  0.82525059     0.03700
C901        C  0.61437600  0.17632324  0.80211316    -0.12800
C902        C  0.59674153  0.18445651  0.78690185    -0.08400
C903        C  0.57340674  0.18555126  0.79526352     0.07100
C904        C  0.56822730  0.17771971  0.81798263    -0.13500
S905        S  0.63279499  0.16110699  0.84480092    -0.30500
H906        H  0.63222392  0.17550323  0.79578503     0.11400
S907        S  0.54965790  0.19815174  0.77870671    -0.27600
H908        H  0.55027286  0.17834794  0.82414256     0.08600
H909        H  0.58491352  0.10352214  0.91570621     0.27100
H910        H  0.65132894  0.16660221  0.82946011     0.21900
H911        H  0.56358804  0.21466066  0.76697055     0.27200
H912        H  0.58573602  0.21093210  0.85319586     0.16000
C913        C  0.42594482  0.22054424  0.08449240    -0.11300
C914        C  0.43514462  0.24034858  0.07309052     0.15300
C915        C  0.45147030  0.23747443  0.05481477     0.02200
C916        C  0.45850381  0.21499326  0.04853085    -0.15600
C917        C  0.44916646  0.19501792  0.05960983    -0.10500
C918        C  0.43269329  0.19785746  0.07789014     0.08900
C919        C  0.42832188  0.26387296  0.08125672     0.09900
S920        S  0.46381214  0.26179157  0.03868905    -0.24800
H921        H  0.47090209  0.21308729  0.03427093     0.20200
S922        S  0.42114084  0.17290888  0.09368867    -0.30500
H923        H  0.41365219  0.22297523  0.09873050     0.10500
C924        C  0.40660917  0.27386553  0.07506914     0.03700
C925        C  0.40124525  0.29652954  0.08264289    -0.12800
C926        C  0.41727870  0.30944102  0.09600377    -0.08400
C927        C  0.43884187  0.29922777  0.10250539     0.07100
C928        C  0.44422779  0.27666472  0.09487334    -0.13500
S929        S  0.38621352  0.25811775  0.05677359    -0.30500
H930        H  0.38471773  0.30452023  0.07787224     0.11400
S931        S  0.45982089  0.31370638  0.12108712    -0.27600
H932        H  0.46087598  0.26890860  0.09971111     0.08600
H933        H  0.40598923  0.18541309  0.10847830     0.27100
H934        H  0.36929266  0.27592933  0.05518063     0.21900
H935        H  0.44361863  0.32791294  0.13286600     0.27200
H936        H  0.44408319  0.27639984  0.04023204     0.16000
C937        C  0.91829046  0.32015906  0.02219617    -0.11300
C938        C  0.92829710  0.33412992  0.00451804     0.15300
C939        C  0.92987813  0.32521437  0.98150546     0.02200
C940        C  0.92195058  0.30247555  0.97687113    -0.15600
C941        C  0.91244065  0.28831593  0.99469552    -0.10500
C942        C  0.91003189  0.29760130  0.01746832     0.08900
C943        C  0.93782550  0.35738122  0.01112834     0.09900
S944        S  0.94209419  0.34178612  0.95744274    -0.24800
H945        H  0.92364414  0.29550807  0.95932006     0.20200
S946        S  0.89584996  0.28192109  0.04100315    -0.30500
H947        H  0.91683972  0.32695864  0.03984943     0.10500
C948        C  0.92297863  0.37607554  0.01721067     0.03700
C949        C  0.93265362  0.39671586  0.02644034    -0.12800
C950        C  0.95695551  0.39901372  0.02977623    -0.08400
C951        C  0.97190341  0.38087541  0.02191100     0.07100
C952        C  0.96214514  0.36023017  0.01289154    -0.13500
S953        S  0.89165977  0.37341200  0.01351773    -0.30500
H954        H  0.92118496  0.41062885  0.03212729     0.11400
S955        S  0.00346485  0.38384241  0.02305690    -0.27600
H956        H  0.97342877  0.34592458  0.00780454     0.08600
H957        H  0.88099360  0.26865051  0.02656234     0.27100
H958        H  0.88588701  0.39586787  0.02160974     0.21900
H959        H  0.00887591  0.36310431  0.01106961     0.27200
H960        H  0.93617429  0.36398099  0.96607399     0.16000
C961        C  0.81864138  0.60567795  0.14682892    -0.11300
C962        C  0.83114989  0.59417983  0.16463726     0.15300
C963        C  0.82121524  0.59230654  0.18724965     0.02200
C964        C  0.79880720  0.60140695  0.19134151    -0.15600
C965        C  0.78605189  0.61249794  0.17340417    -0.10500
C966        C  0.79635300  0.61497903  0.15094764     0.08900
C967        C  0.85324574  0.58225178  0.15820355     0.09900
S968        S  0.83572684  0.57761734  0.21126005    -0.24800
H969        H  0.79098042  0.59942850  0.20853586     0.20200
S970        S  0.78239567  0.63006631  0.12684616    -0.30500
H971        H  0.82619283  0.60708369  0.12944256     0.10500
C972        C  0.85302550  0.55865610  0.15139680     0.03700
C973        C  0.87370120  0.54833374  0.14325152    -0.12800
C974        C  0.89478970  0.56105175  0.14163460    -0.08400
C975        C  0.89503386  0.58466832  0.14893770     0.07100
C976        C  0.87428693  0.59497316  0.15718354    -0.13500
S977        S  0.82614631  0.54189809  0.15233739    -0.30500
H978        H  0.87338522  0.53021407  0.13785192     0.11400
S979        S  0.92069160  0.60293833  0.14686762    -0.27600
H980        H  0.87436375  0.61321565  0.16222360     0.08600
H981        H  0.76749660  0.64404405  0.14042832     0.27100
H982        H  0.83580081  0.52049250  0.14512705     0.21900
H983        H  0.92794462  0.59418037  0.12503601     0.27200
H984        H  0.85874364  0.58169042  0.20351540     0.16000
C985        C  0.07625064  0.42195780  0.27599509    -0.11300
C986        C  0.09225519  0.42990649  0.25907029     0.15300
C987        C  0.11635789  0.43043918  0.26451994     0.02200
C988        C  0.12382767  0.42387036  0.28693787    -0.15600
C989        C  0.10790510  0.41593253  0.30396407    -0.10500
C990        C  0.08383720  0.41445606  0.29814747     0.08900
C991        C  0.08322370  0.43920340  0.23656673     0.09900
S992        S  0.13840864  0.43928919  0.24362145    -0.24800
H993        H  0.14228472  0.42497794  0.29121131     0.20200
S994        S  0.06213331  0.40193482  0.31744394    -0.30500
H995        H  0.05772432  0.42138663  0.27179861     0.10500
C996        C  0.07323757  0.42458547  0.21940245     0.03700
C997        C  0.06441622  0.43453323  0.19861509    -0.12800
C998        C  0.06507652  0.45882556  0.19490792    -0.08400
C999        C  0.07581310  0.47326255  0.21189233     0.07100
C1000       C  0.08460256  0.46332864  0.23250771    -0.13500
S1001       S  0.07149407  0.39337521  0.22410742    -0.30500
H1002       H  0.05595884  0.42352094  0.18573183     0.11400
S1003       S  0.07885673  0.50447829  0.20837802    -0.27600
H1004       H  0.09247526  0.47452477  0.24562937     0.08600
H1005       H  0.07752122  0.38687012  0.32942701     0.27100
H1006       H  0.06033411  0.38797688  0.20279574     0.21900
H1007       H  0.08071792  0.50407165  0.18377416     0.27200
H1008       H  0.12633387  0.43156331  0.22358913     0.16000
C1009       C  0.88021901  0.55902787  0.94821964    -0.11300
C1010       C  0.87089579  0.56159140  0.97077650     0.15300
C1011       C  0.85465329  0.57972063  0.97499002     0.02200
C1012       C  0.84921253  0.59562247  0.95697985    -0.15600
C1013       C  0.85956478  0.59380280  0.93472407    -0.10500
C1014       C  0.87475907  0.57477540  0.93019278     0.08900
C1015       C  0.88160979  0.54771164  0.99004872     0.09900
S1016       S  0.84125780  0.58414641  0.00326091    -0.24800
H1017       H  0.83782177  0.61023706  0.96079743     0.20200
S1018       S  0.88887322  0.56994337  0.90229328    -0.30500
H1019       H  0.89282537  0.54526599  0.94492907     0.10500
C1020       C  0.87962269  0.52313670  0.99137238     0.03700
C1021       C  0.89264860  0.51071188  0.00831983    -0.12800
C1022       C  0.90752992  0.52246006  0.02398064    -0.08400
C1023       C  0.90936436  0.54709627  0.02251912     0.07100
C1024       C  0.89627316  0.55938424  0.00584087    -0.13500
S1025       S  0.86022004  0.50774037  0.97175077    -0.30500
H1026       H  0.89115237  0.49186905  0.00951467     0.11400
S1027       S  0.92945427  0.56373933  0.04023916    -0.27600
H1028       H  0.89831749  0.57819149  0.00446480     0.08600
H1029       H  0.87284197  0.58228281  0.88838547     0.27100
H1030       H  0.86426471  0.48523200  0.98096574     0.21900
H1031       H  0.94792071  0.54770927  0.03768324     0.27200
H1032       H  0.84290967  0.56075019  0.01080254     0.16000
C1033       C  0.64848250  0.21916719  0.04942521    -0.11300
C1034       C  0.62551210  0.22509746  0.05573161     0.15300
C1035       C  0.62182366  0.23982008  0.07521045     0.02200
C1036       C  0.64093615  0.24669980  0.08899619    -0.15600
C1037       C  0.66371525  0.23917925  0.08375466    -0.10500
C1038       C  0.66759486  0.22616674  0.06312686     0.08900
C1039       C  0.60593972  0.21214925  0.04465862     0.09900
S1040       S  0.59299903  0.24887271  0.08436543    -0.24800
H1041       H  0.63779460  0.25669764  0.10477361     0.20200
S1042       S  0.69640438  0.21703229  0.05402591    -0.30500
H1043       H  0.65143003  0.20793256  0.03446570     0.10500
C1044       C  0.59769255  0.21724545  0.02187567     0.03700
C1045       C  0.57929980  0.20382284  0.01236557    -0.12800
C1046       C  0.56918122  0.18536037  0.02524930    -0.08400
C1047       C  0.57827284  0.17983509  0.04771203     0.07100
C1048       C  0.59617510  0.19345189  0.05723626    -0.13500
S1049       S  0.61006129  0.24127764  0.00537500    -0.30500
H1050       H  0.57238659  0.20805500  0.99517012     0.11400
S1051       S  0.56854219  0.15498313  0.06476477    -0.27600
H1052       H  0.60295082  0.18912948  0.07449464     0.08600
H1053       H  0.70857243  0.23540737  0.06494141     0.27100
H1054       H  0.59619633  0.23839398  0.98517799     0.21900
H1055       H  0.56498817  0.14032028  0.04534095     0.27200
H1056       H  0.58247773  0.24727779  0.06212068     0.16000
C1057       C  0.44636955  0.33372646  0.79060581    -0.11300
C1058       C  0.42521103  0.34285883  0.79905843     0.15300
C1059       C  0.42101120  0.36713510  0.79690026     0.02200
C1060       C  0.43696180  0.38125546  0.78454718    -0.15600
C1061       C  0.45712637  0.37170203  0.77431423    -0.10500
C1062       C  0.46232194  0.34782334  0.77823505     0.08900
C1063       C  0.40641121  0.32623678  0.80620258     0.09900
S1064       S  0.39463595  0.38066624  0.80769290    -0.24800
H1065       H  0.43278269  0.39951606  0.78153752     0.20200
S1066       S  0.48810758  0.33379172  0.76657541    -0.30500
H1067       H  0.44977333  0.31514728  0.79232282     0.10500
C1068       C  0.38865685  0.31990763  0.79022324     0.03700
C1069       C  0.37123525  0.30394555  0.79711113    -0.12800
C1070       C  0.37114533  0.29390399  0.81965487    -0.08400
C1071       C  0.38944833  0.29966068  0.83539847     0.07100
C1072       C  0.40672151  0.31590131  0.82859505    -0.13500
S1073       S  0.38845036  0.33186578  0.76079977    -0.30500
H1074       H  0.35746264  0.29933518  0.78490351     0.11400
S1075       S  0.39261762  0.28597162  0.86376386    -0.27600
H1076       H  0.42069798  0.32025330  0.84068848     0.08600
H1077       H  0.50074861  0.35404110  0.76068340     0.27100
H1078       H  0.36910740  0.31904672  0.75255147     0.21900
H1079       H  0.38242079  0.26449683  0.85750235     0.27200
H1080       H  0.39036720  0.36432929  0.82570959     0.16000
C1081       C  0.51598514  0.46598618  0.70863658    -0.11300
C1082       C  0.53911670  0.46533224  0.71688672     0.15300
C1083       C  0.54543757  0.44831668  0.73384270     0.02200
C1084       C  0.52875597  0.43175693  0.74128583    -0.15600
C1085       C  0.50588234  0.43174417  0.73213313    -0.10500
C1086       C  0.49930047  0.44955823  0.71616907     0.08900
C1087       C  0.55592257  0.48257914  0.70691500     0.09900
S1088       S  0.57439630  0.44650427  0.74645005    -0.24800
H1089       H  0.53398180  0.41819140  0.75354663     0.20200
S1090       S  0.46947205  0.45185711  0.70571678    -0.30500
H1091       H  0.51112060  0.47933689  0.69599676     0.10500
C1092       C  0.56660066  0.47882311  0.68496183     0.03700
C1093       C  0.57968671  0.49685573  0.67439790    -0.12800
C1094       C  0.58241250  0.51868100  0.68534490    -0.08400
C1095       C  0.57315233  0.52166171  0.70819029     0.07100
C1096       C  0.55969676  0.50380225  0.71850557    -0.13500
S1097       S  0.56293373  0.45124110  0.67010135    -0.30500
H1098       H  0.58694033  0.49428253  0.65705779     0.11400
S1099       S  0.57840658  0.54749873  0.72535653    -0.27600
H1100       H  0.55189691  0.50654719  0.73559770     0.08600
H1101       H  0.47234279  0.47275446  0.69289787     0.27100
H1102       H  0.57782857  0.45626300  0.65106773     0.21900
H1103       H  0.60093790  0.55176903  0.71627315     0.27200
H1104       H  0.58657303  0.45761608  0.72812106     0.16000
C1105       C  0.72068748  0.58250780  0.11300197    -0.11300
C1106       C  0.72792443  0.55947852  0.11722045     0.15300
C1107       C  0.74258585  0.55468828  0.13667619     0.02200
C1108       C  0.74847170  0.57282101  0.15219089    -0.15600
C1109       C  0.74002841  0.59564911  0.14867383    -0.10500
C1110       C  0.72644686  0.60057213  0.12847974     0.08900
C1111       C  0.71778144  0.54102021  0.10203199     0.09900
S1112       S  0.75309796  0.52571174  0.14348540    -0.24800
H1113       H  0.75873579  0.56883924  0.16770673     0.20200
S1114       S  0.71623564  0.62988979  0.12227588    -0.30500
H1115       H  0.70973390  0.58611811  0.09788435     0.10500
C1116       C  0.69564094  0.53123207  0.10707983     0.03700
C1117       C  0.68439779  0.51721221  0.09028475    -0.12800
C1118       C  0.69476827  0.51289770  0.06837971    -0.08400
C1119       C  0.71772378  0.52141494  0.06410548     0.07100
C1120       C  0.72875200  0.53567506  0.08074281    -0.13500
S1121       S  0.68110254  0.53784159  0.13438828    -0.30500
H1122       H  0.66691549  0.51066414  0.09371772     0.11400
S1123       S  0.73391706  0.51468094  0.03783669    -0.27600
H1124       H  0.74583683  0.54304748  0.07688896     0.08600
H1125       H  0.70191214  0.62423381  0.10302559     0.27100
H1126       H  0.66055872  0.52495903  0.13003066     0.21900
H1127       H  0.72417064  0.49225588  0.03499200     0.27200
H1128       H  0.75175872  0.51680860  0.12061550     0.16000
C1129       C  0.78158549  0.58611666  0.91081619    -0.11300
C1130       C  0.76905519  0.59708508  0.92879889     0.15300
C1131       C  0.77866433  0.61705998  0.93970995     0.02200
C1132       C  0.80038410  0.62565514  0.93207975    -0.15600
C1133       C  0.81326025  0.61406159  0.91472521    -0.10500
C1134       C  0.80362873  0.59411605  0.90389393     0.08900
C1135       C  0.74770021  0.58515691  0.93737248     0.09900
S1136       S  0.76495182  0.63163321  0.96412236    -0.24800
H1137       H  0.80795498  0.64081142  0.94053984     0.20200
S1138       S  0.81866357  0.57727269  0.88195690    -0.30500
H1139       H  0.77443549  0.57056388  0.90268026     0.10500
C1140       C  0.72492175  0.59392556  0.93355941     0.03700
C1141       C  0.70547453  0.58080317  0.94127319    -0.12800
C1142       C  0.70847086  0.55890608  0.95226937    -0.08400
C1143       C  0.73147745  0.54989586  0.95497748     0.07100
C1144       C  0.75063623  0.56332223  0.94809074    -0.13500
S1145       S  0.72067145  0.62143908  0.91847977    -0.30500
H1146       H  0.68795382  0.58766444  0.93890280     0.11400
S1147       S  0.73787603  0.52080325  0.96563290    -0.27600
H1148       H  0.76814410  0.55631094  0.95039789     0.08600
H1149       H  0.83623965  0.59348406  0.87699351     0.27100
H1150       H  0.69602445  0.62108416  0.91882530     0.21900
H1151       H  0.71938625  0.51015473  0.95328337     0.27200
H1152       H  0.75210193  0.61242775  0.97263472     0.16000
C1153       C  0.49038302  0.39876638  0.01980068    -0.11300
C1154       C  0.49652913  0.37882505  0.03282014     0.15300
C1155       C  0.51981372  0.37054495  0.03169447     0.02200
C1156       C  0.53667330  0.38330230  0.01904097    -0.15600
C1157       C  0.53083238  0.40401876  0.00688094    -0.10500
C1158       C  0.50714112  0.41151912  0.00711302     0.08900
C1159       C  0.47882014  0.36895601  0.04930660     0.09900
S1160       S  0.52918090  0.34412846  0.04638885    -0.24800
H1161       H  0.55458777  0.37703433  0.01885008     0.20200
S1162       S  0.49730086  0.43825240  0.99343408    -0.30500
H1163       H  0.47256631  0.40525820  0.02064924     0.10500
C1164       C  0.48067463  0.37259564  0.07370535     0.03700
C1165       C  0.46216116  0.36588115  0.08846534    -0.12800
C1166       C  0.44164702  0.35571696  0.07950038    -0.08400
C1167       C  0.43988917  0.35181545  0.05507748     0.07100
C1168       C  0.45856994  0.35823704  0.04033326    -0.13500
S1169       S  0.50574938  0.38753915  0.08595141    -0.30500
H1170       H  0.46321538  0.36940904  0.10708335     0.11400
S1171       S  0.41385646  0.34036308  0.04130056    -0.27600
H1172       H  0.45689600  0.35581872  0.02156211     0.08600
H1173       H  0.51535344  0.45192537  0.00315538     0.27100
H1174       H  0.49935394  0.38507734  0.10966696     0.21900
H1175       H  0.39766500  0.34883808  0.05772876     0.27200
H1176       H  0.50705703  0.33329589  0.04691414     0.16000
C1177       C  0.66426915  0.32227000  0.11131184    -0.11300
C1178       C  0.66960616  0.32941757  0.08834285     0.15300
C1179       C  0.68183133  0.31407510  0.07339035     0.02200
C1180       C  0.68857195  0.29210337  0.08175427    -0.15600
C1181       C  0.68296316  0.28477864  0.10455773    -0.10500
C1182       C  0.67040428  0.29994020  0.11942247     0.08900
C1183       C  0.66059917  0.35207329  0.07966474     0.09900
S1184       S  0.68891712  0.32125706  0.04335625    -0.24800
H1185       H  0.69798501  0.28033838  0.07028572     0.20200
S1186       S  0.66036870  0.29137496  0.14817521    -0.30500
H1187       H  0.65442416  0.33383210  0.12263669     0.10500
C1188       C  0.63705006  0.35428180  0.07270057     0.03700
C1189       C  0.62970614  0.37477639  0.06140111    -0.12800
C1190       C  0.64542337  0.39317640  0.05664731    -0.08400
C1191       C  0.66889876  0.39122491  0.06456731     0.07100
C1192       C  0.67613770  0.37077874  0.07615597    -0.13500
S1193       S  0.61669435  0.33034126  0.07676406    -0.30500
H1194       H  0.61168346  0.37621075  0.05563851     0.11400
S1195       S  0.69089727  0.41318081  0.05894800    -0.27600
H1196       H  0.69429437  0.36894017  0.08143757     0.08600
H1197       H  0.65931408  0.26724635  0.14377327     0.27100
H1198       H  0.59689525  0.34159296  0.06729236     0.21900
H1199       H  0.68486133  0.41607429  0.03516740     0.27200
H1200       H  0.66851677  0.33418974  0.03861863     0.16000
C1201       C  0.52279112  0.62338022  0.86783883    -0.11300
C1202       C  0.54721617  0.62597968  0.86682995     0.15300
C1203       C  0.55668601  0.64663827  0.85685840     0.02200
C1204       C  0.54163947  0.66482115  0.84993194    -0.15600
C1205       C  0.51724241  0.66273738  0.85226999    -0.10500
C1206       C  0.50775888  0.64145090  0.86072203     0.08900
C1207       C  0.56207303  0.60775626  0.87820708     0.09900
S1208       S  0.58778905  0.65135407  0.85366983    -0.24800
H1209       H  0.54913790  0.68115135  0.84382088     0.20200
S1210       S  0.47669353  0.63675881  0.86444731    -0.30500
H1211       H  0.51537373  0.60752664  0.87526934     0.10500
C1212       C  0.57366219  0.61198456  0.89965130     0.03700
C1213       C  0.58662630  0.59400334  0.91041220    -0.12800
C1214       C  0.58800701  0.57156757  0.90052136    -0.08400
C1215       C  0.57666492  0.56755789  0.87872943     0.07100
C1216       C  0.56368418  0.58554099  0.86804282    -0.13500
S1217       S  0.57067140  0.63981540  0.91420427    -0.30500
H1218       H  0.59487142  0.59716378  0.92720481     0.11400
S1219       S  0.57839615  0.54017188  0.86329517    -0.27600
H1220       H  0.55483617  0.58223697  0.85155896     0.08600
H1221       H  0.46901101  0.65429886  0.84895675     0.27100
H1222       H  0.58639568  0.63519378  0.93266838     0.21900
H1223       H  0.60189363  0.53582756  0.86939689     0.27200
H1224       H  0.59403843  0.62762842  0.85240080     0.16000
C1225       C  0.49396312  0.44362058  0.81037365    -0.11300
C1226       C  0.51063331  0.43066505  0.82309458     0.15300
C1227       C  0.51749584  0.40845707  0.81482300     0.02200
C1228       C  0.50749503  0.39971322  0.79430182    -0.15600
C1229       C  0.49141227  0.41292956  0.78128021    -0.10500
C1230       C  0.48443882  0.43507147  0.78946993     0.08900
C1231       C  0.52060205  0.44062121  0.84487381     0.09900
S1232       S  0.53961334  0.39083993  0.82901597    -0.24800
H1233       H  0.51307596  0.38287874  0.78781278     0.20200
S1234       S  0.46358345  0.45318264  0.77409430    -0.30500
H1235       H  0.48845183  0.46056875  0.81673237     0.10500
C1236       C  0.53436805  0.46104545  0.84436250     0.03700
C1237       C  0.54489292  0.46885117  0.86506830    -0.12800
C1238       C  0.54228934  0.45666570  0.88652819    -0.08400
C1239       C  0.52744611  0.43672008  0.88704952     0.07100
C1240       C  0.51695278  0.42895516  0.86627283    -0.13500
S1241       S  0.53998214  0.47640075  0.81709329    -0.30500
H1242       H  0.55586888  0.48425933  0.86421511     0.11400
S1243       S  0.52139943  0.41992444  0.91318050    -0.27600
H1244       H  0.50604311  0.41343614  0.86669527     0.08600
H1245       H  0.45246293  0.43511489  0.76173781     0.27100
H1246       H  0.55197940  0.49556666  0.82678244     0.21900
H1247       H  0.51368342  0.43949685  0.92588082     0.27200
H1248       H  0.55340474  0.40969929  0.83670743     0.16000
C1249       C  0.39466592  0.05759793  0.49405760    -0.11300
C1250       C  0.38058506  0.04480318  0.47853916     0.15300
C1251       C  0.38084600  0.02008774  0.47995138     0.02200
C1252       C  0.39543633  0.00884456  0.49637788    -0.15600
C1253       C  0.40941380  0.02171665  0.51198363    -0.10500
C1254       C  0.40897736  0.04644914  0.51061781     0.08900
C1255       C  0.36828004  0.05781636  0.45944338     0.09900
S1256       S  0.36254219  0.00198265  0.46171428    -0.24800
H1257       H  0.39531198  0.98992356  0.49747929     0.20200
S1258       S  0.42715814  0.06486853  0.52868919    -0.30500
H1259       H  0.39510969  0.07651089  0.49273035     0.10500
C1260       C  0.35164269  0.07547732  0.46416202     0.03700
C1261       C  0.34382632  0.09010277  0.44583775    -0.12800
C1262       C  0.35224908  0.08740705  0.42287800    -0.08400
C1263       C  0.36726561  0.06842292  0.41791525     0.07100
C1264       C  0.37532757  0.05411283  0.43619300    -0.13500
S1265       S  0.34087500  0.07985604  0.49360168    -0.30500
H1266       H  0.33229871  0.10459234  0.44969855     0.11400
S1267       S  0.37733786  0.06199192  0.38867443    -0.27600
H1268       H  0.38791263  0.04047384  0.43235715     0.08600
H1269       H  0.44659704  0.04977080  0.52855888     0.27100
H1270       H  0.32608881  0.09886312  0.48838602     0.21900
H1271       H  0.35784944  0.07174786  0.37710277     0.27200
H1272       H  0.34457804  0.01854008  0.45864089     0.16000
C1273       C  0.01164725  0.95860991  0.36098707    -0.11300
C1274       C  0.00943521  0.93435764  0.35854270     0.15300
C1275       C  0.01647905  0.91956228  0.37718022     0.02200
C1276       C  0.02696075  0.92925350  0.39715509    -0.15600
C1277       C  0.03048625  0.95350042  0.39902027    -0.10500
C1278       C  0.02170809  0.96834555  0.38105711     0.08900
C1279       C  0.00235130  0.92515268  0.33535219     0.09900
S1280       S  0.01346288  0.88818617  0.37606568    -0.24800
H1281       H  0.03337121  0.91766713  0.41083184     0.20200
S1282       S  0.02289526  0.99984034  0.38248729    -0.30500
H1283       H  0.00604187  0.97004203  0.34682508     0.10500
C1284       C  0.97937251  0.92769363  0.32664589     0.03700
C1285       C  0.97414356  0.92014137  0.30382213    -0.12800
C1286       C  0.99143889  0.91011446  0.28954033    -0.08400
C1287       C  0.01430945  0.90710571  0.29862437     0.07100
C1288       C  0.01952928  0.91485143  0.32124628    -0.13500
S1289       S  0.95674337  0.94034806  0.34467334    -0.30500
H1290       H  0.95666195  0.92238875  0.29681718     0.11400
S1291       S  0.03751799  0.89306247  0.28263252    -0.27600
H1292       H  0.03719894  0.91288230  0.32794797     0.08600
H1293       H  0.01964705  0.00086843  0.40692754     0.27100
H1294       H  0.93858694  0.93879298  0.32804624     0.21900
H1295       H  0.02281322  0.87847267  0.26948750     0.27200
H1296       H  0.99424970  0.88790460  0.36061208     0.16000
C1297       C  0.18498654  0.81953467  0.59117760    -0.11300
C1298       C  0.17317824  0.83728748  0.60328587     0.15300
C1299       C  0.16781076  0.83399795  0.62726903     0.02200
C1300       C  0.17305787  0.81266569  0.63816475    -0.15600
C1301       C  0.18385923  0.79452235  0.62578633    -0.10500
C1302       C  0.19075219  0.79838506  0.60229530     0.08900
C1303       C  0.16422331  0.85774478  0.58992697     0.09900
S1304       S  0.15374433  0.85613487  0.64470264    -0.24800
H1305       H  0.16817877  0.80990404  0.65634431     0.20200
S1306       S  0.20722610  0.77725629  0.58579467    -0.30500
H1307       H  0.18938042  0.82203623  0.57282947     0.10500
C1308       C  0.17915351  0.87523056  0.58082675     0.03700
C1309       C  0.16952793  0.89392730  0.56789687    -0.12800
C1310       C  0.14527124  0.89536033  0.56378161    -0.08400
C1311       C  0.13032631  0.87809141  0.57353594     0.07100
C1312       C  0.14000669  0.85946090  0.58631020    -0.13500
S1313       S  0.21034543  0.87388513  0.58598600    -0.30500
H1314       H  0.18094461  0.90718780  0.56051631     0.11400
S1315       S  0.09879395  0.88003267  0.57069463    -0.27600
H1316       H  0.12869605  0.84603197  0.59355804     0.08600
H1317       H  0.21762508  0.76622505  0.60528495     0.27100
H1318       H  0.21605424  0.89501823  0.57458889     0.21900
H1319       H  0.09320446  0.86071342  0.58502610     0.27200
H1320       H  0.16272350  0.87536846  0.63211393     0.16000
C1321       C  0.19198999  0.04476578  0.60277552    -0.11300
C1322       C  0.21641792  0.04241356  0.60433516     0.15300
C1323       C  0.22805724  0.02743829  0.58845466     0.02200
C1324       C  0.21505793  0.01575253  0.57110160    -0.15600
C1325       C  0.19061283  0.01821371  0.56964200    -0.10500
C1326       C  0.17908057  0.03303908  0.58560268     0.08900
C1327       C  0.22871630  0.05611886  0.62274166     0.09900
S1328       S  0.25922674  0.02222397  0.58953534    -0.24800
H1329       H  0.22400771  0.00435894  0.55891376     0.20200
S1330       S  0.14793884  0.03812716  0.58451224    -0.30500
H1331       H  0.18292944  0.05623823  0.61481918     0.10500
C1332       C  0.24182237  0.07641259  0.61735411     0.03700
C1333       C  0.24957274  0.09097904  0.63563251    -0.12800
C1334       C  0.24426557  0.08577263  0.65915028    -0.08400
C1335       C  0.23269843  0.06454390  0.66449265     0.07100
C1336       C  0.22487360  0.05013509  0.64631871    -0.13500
S1337       S  0.24681054  0.08493836  0.58721878    -0.30500
H1338       H  0.25823434  0.10731465  0.63148268     0.11400
S1339       S  0.22671711  0.05528010  0.69418305    -0.27600
H1340       H  0.21503918  0.03444949  0.65056108     0.08600
H1341       H  0.14679814  0.03922770  0.55990276     0.27100
H1342       H  0.26144785  0.10414325  0.59201486     0.21900
H1343       H  0.24561758  0.06732494  0.70439535     0.27200
H1344       H  0.26254708  0.02804562  0.61321780     0.16000
C1345       C  0.26940148  0.11372942  0.42827334    -0.11300
C1346       C  0.26240599  0.09095654  0.42234536     0.15300
C1347       C  0.27703144  0.07745356  0.40768334     0.02200
C1348       C  0.29822897  0.08687893  0.39961305    -0.15600
C1349       C  0.30559244  0.10928770  0.40627204    -0.10500
C1350       C  0.29098241  0.12279514  0.42082686     0.08900
C1351       C  0.24037810  0.08144888  0.43256498     0.09900
S1352       S  0.27015823  0.04784909  0.39933062    -0.24800
H1353       H  0.30953346  0.07640609  0.38861945     0.20200
S1354       S  0.29960332  0.15095497  0.43175460    -0.30500
H1355       H  0.25836680  0.12414913  0.43959747     0.10500
C1356       C  0.23837962  0.07718574  0.45687427     0.03700
C1357       C  0.21780947  0.06711122  0.46578500    -0.12800
C1358       C  0.19917796  0.06062586  0.45097974    -0.08400
C1359       C  0.20122646  0.06503256  0.42659270     0.07100
C1360       C  0.22155181  0.07576490  0.41776473    -0.13500
S1361       S  0.26257987  0.08312995  0.47648347    -0.30500
H1362       H  0.21649885  0.06362392  0.48442824     0.11400
S1363       S  0.17954022  0.05577609  0.40560993    -0.27600
H1364       H  0.22312706  0.07885057  0.39905888     0.08600
H1365       H  0.32336944  0.14509306  0.43441402     0.27100
H1366       H  0.25106751  0.07710279  0.49748432     0.21900
H1367       H  0.17675637  0.03334953  0.41552610     0.27200
H1368       H  0.25903084  0.04158908  0.42045016     0.16000
C1369       C  0.99692954  0.87359756  0.52049891    -0.11300
C1370       C  0.99688435  0.87419008  0.54516487     0.15300
C1371       C  0.01446161  0.88719716  0.55679474     0.02200
C1372       C  0.03123095  0.89939875  0.54369596    -0.15600
C1373       C  0.03043234  0.89997806  0.51908548    -0.10500
C1374       C  0.01329762  0.88650728  0.50736761     0.08900
C1375       C  0.97752777  0.86267755  0.55842452     0.09900
S1376       S  0.01570762  0.89022228  0.58826928    -0.24800
H1377       H  0.04431464  0.90961777  0.55288386     0.20200
S1378       S  0.01153835  0.88482613  0.47584121    -0.30500
H1379       H  0.98376076  0.86341379  0.51141437     0.10500
C1380       C  0.95428062  0.87080514  0.55631602     0.03700
C1381       C  0.93732838  0.86303147  0.57229674    -0.12800
C1382       C  0.94297532  0.84763112  0.59070491    -0.08400
C1383       C  0.96598052  0.83857901  0.59215458     0.07100
C1384       C  0.98278281  0.84567408  0.57557757    -0.13500
S1385       S  0.94647391  0.89286809  0.53484599    -0.30500
H1386       H  0.91972279  0.87001005  0.57131088     0.11400
S1387       S  0.97582364  0.82004256  0.61587312    -0.27600
H1388       H  0.00060984  0.83936829  0.57724518     0.08600
H1389       H  0.03582458  0.88652993  0.47198734     0.27100
H1390       H  0.92255393  0.89436919  0.54056317     0.21900
H1391       H  0.96130310  0.82966380  0.63320770     0.27200
H1392       H  0.99132643  0.89179751  0.59148017     0.16000
C1393       C  0.04541870  0.65158716  0.22320704    -0.11300
C1394       C  0.04828858  0.62892917  0.23222288     0.15300
C1395       C  0.06405269  0.62557733  0.25118078     0.02200
C1396       C  0.07819933  0.64427726  0.25888280    -0.15600
C1397       C  0.07648203  0.66659365  0.24854005    -0.10500
C1398       C  0.05874573  0.67038343  0.23145909     0.08900
C1399       C  0.03696546  0.60914402  0.21929670     0.09900
S1400       S  0.06732842  0.59772061  0.26574160    -0.24800
H1401       H  0.09145833  0.64100819  0.27210910     0.20200
S1402       S  0.05262042  0.69868431  0.21867271    -0.30500
H1403       H  0.03323016  0.65455073  0.20889993     0.10500
C1404       C  0.01244424  0.60774109  0.21598996     0.03700
C1405       C  0.00297631  0.59068673  0.20089375    -0.12800
C1406       C  0.01742884  0.57483824  0.18887422    -0.08400
C1407       C  0.04200734  0.57637456  0.19224356     0.07100
C1408       C  0.05136234  0.59314340  0.20753376    -0.13500
S1409       S  0.99310518  0.62728572  0.23147864    -0.30500
H1410       H  0.98417585  0.58949558  0.19864958     0.11400
S1411       S  0.06261564  0.55873024  0.17621847    -0.27600
H1412       H  0.07021969  0.59448267  0.20938872     0.08600
H1413       H  0.06098721  0.71183210  0.23765715     0.27100
H1414       H  0.97218092  0.61988946  0.22075624     0.21900
H1415       H  0.04993434  0.55923554  0.15504458     0.27200
H1416       H  0.04469078  0.58949823  0.26050263     0.16000
C1417       C  0.69784071  0.56907760  0.48012243    -0.11300
C1418       C  0.71886238  0.55831304  0.48693530     0.15300
C1419       C  0.72574074  0.55911473  0.51069912     0.02200
C1420       C  0.71130510  0.57026291  0.52709311    -0.15600
C1421       C  0.68994170  0.58073540  0.52045470    -0.10500
C1422       C  0.68316042  0.57983314  0.49654707     0.08900
C1423       C  0.73130975  0.54383678  0.46937146     0.09900
S1424       S  0.75220468  0.54546289  0.52138081    -0.24800
H1425       H  0.71681195  0.57062587  0.54528773     0.20200
S1426       S  0.65515776  0.59005705  0.48607966    -0.30500
H1427       H  0.69218014  0.56792903  0.46200554     0.10500
C1428       C  0.72692556  0.51966390  0.46793290     0.03700
C1429       C  0.73612341  0.50696178  0.44915378    -0.12800
C1430       C  0.74996457  0.51771688  0.43181427    -0.08400
C1431       C  0.75527588  0.54179888  0.43382051     0.07100
C1432       C  0.74590794  0.55456271  0.45263105    -0.13500
S1433       S  0.70822394  0.50523246  0.48910269    -0.30500
H1434       H  0.73161292  0.48866441  0.44730117     0.11400
S1435       S  0.77260758  0.55772074  0.41257779    -0.27600
H1436       H  0.74925654  0.57317615  0.45373779     0.08600
H1437       H  0.64243565  0.58019368  0.50484113     0.27100
H1438       H  0.71215083  0.48228107  0.48127242     0.21900
H1439       H  0.77014427  0.54233234  0.39366185     0.27200
H1440       H  0.76460980  0.54624030  0.50010733     0.16000
C1441       C  0.12254641  0.74460052  0.59419562    -0.11300
C1442       C  0.12980872  0.72710058  0.57858954     0.15300
C1443       C  0.15356230  0.72026551  0.57855015     0.02200
C1444       C  0.16903493  0.72979812  0.59500258    -0.15600
C1445       C  0.16156489  0.74631951  0.61151692    -0.10500
C1446       C  0.13803646  0.75405851  0.61083228     0.08900
C1447       C  0.11168784  0.71330352  0.56594576     0.09900
S1448       S  0.16468941  0.69784832  0.55945829    -0.24800
H1449       H  0.18694196  0.72348687  0.59561172     0.20200
S1450       S  0.12601799  0.77413213  0.63193504    -0.30500
H1451       H  0.10424443  0.74965557  0.59457360     0.10500
C1452       C  0.10085544  0.69403493  0.57699764     0.03700
C1453       C  0.08373311  0.68121922  0.56494360    -0.12800
C1454       C  0.07710354  0.68701078  0.54184071    -0.08400
C1455       C  0.08803863  0.70639619  0.53077443     0.07100
C1456       C  0.10517314  0.71929278  0.54291830    -0.13500
S1457       S  0.10887046  0.68573929  0.60659355    -0.30500
H1458       H  0.07548197  0.66645044  0.57357316     0.11400
S1459       S  0.08023901  0.71620543  0.50172693    -0.27600
H1460       H  0.11338642  0.73418373  0.53443917     0.08600
H1461       H  0.13999588  0.76708824  0.65099978     0.27100
H1462       H  0.09373132  0.66640174  0.60857038     0.21900
H1463       H  0.05606035  0.71228925  0.50453560     0.27200
H1464       H  0.14967199  0.70279736  0.54055776     0.16000
C1465       C  0.96431882  0.72618158  0.59286072    -0.11300
C1466       C  0.94065451  0.73217010  0.58998247     0.15300
C1467       C  0.92517036  0.71588675  0.57978121     0.02200
C1468       C  0.93378122  0.69438847  0.57204423    -0.15600
C1469       C  0.95758317  0.68843044  0.57444883    -0.10500
C1470       C  0.97295028  0.70444990  0.58551227     0.08900
C1471       C  0.93287268  0.75571078  0.59743850     0.09900
S1472       S  0.89429828  0.72151212  0.57592296    -0.24800
H1473       H  0.92176805  0.68240337  0.56358568     0.20200
S1474       S  0.00337829  0.69740098  0.59103555    -0.30500
H1475       H  0.97604780  0.73873737  0.60083791     0.10500
C1476       C  0.93318243  0.76219615  0.62123841     0.03700
C1477       C  0.92688864  0.78499329  0.62746990    -0.12800
C1478       C  0.91971422  0.80139573  0.61052326    -0.08400
C1479       C  0.91795296  0.79435528  0.58684966     0.07100
C1480       C  0.92515071  0.77185275  0.58048335    -0.13500
S1481       S  0.94120617  0.74135298  0.64377892    -0.30500
H1482       H  0.92802981  0.79026260  0.64558311     0.11400
S1483       S  0.90542591  0.81259467  0.56424719    -0.27600
H1484       H  0.92435065  0.76671850  0.56222970     0.08600
H1485       H  0.00942052  0.71820303  0.60263223     0.27100
H1486       H  0.93553742  0.75549530  0.66307208     0.21900
H1487       H  0.89131186  0.82584202  0.57938778     0.27200
H1488       H  0.89176041  0.73593992  0.59564473     0.16000
C1489       C  0.03198286  0.49730209  0.38414809    -0.11300
C1490       C  0.05551389  0.49098880  0.38755663     0.15300
C1491       C  0.06910455  0.50346435  0.40399452     0.02200
C1492       C  0.05918464  0.52217381  0.41612435    -0.15600
C1493       C  0.03562975  0.52864052  0.41285521    -0.10500
C1494       C  0.02194324  0.51600019  0.39647963     0.08900
C1495       C  0.06590111  0.47172403  0.37361583     0.09900
S1496       S  0.09917754  0.49617479  0.41059490    -0.24800
H1497       H  0.06991368  0.53141840  0.42874389     0.20200
S1498       S  0.99205433  0.52349192  0.38960753    -0.30500
H1499       H  0.02151177  0.48787535  0.37145993     0.10500
C1500       C  0.06114000  0.44812778  0.37900703     0.03700
C1501       C  0.07491190  0.43053398  0.36890812    -0.12800
C1502       C  0.09322279  0.43593719  0.35329305    -0.08400
C1503       C  0.09696699  0.45956356  0.34680174     0.07100
C1504       C  0.08307721  0.47709940  0.35679860    -0.13500
S1505       S  0.03890875  0.44050107  0.40025802    -0.30500
H1506       H  0.07220138  0.41247356  0.37405619     0.11400
S1507       S  0.12037364  0.46892760  0.32769241    -0.27600
H1508       H  0.08674704  0.49525810  0.35264646     0.08600
H1509       H  0.99588115  0.54779921  0.39003554     0.27100
H1510       H  0.04079797  0.41609928  0.39791309     0.21900
H1511       H  0.13664828  0.45184924  0.33469435     0.27200
H1512       H  0.09677261  0.47192384  0.40745873     0.16000
C1513       C  0.08947982  0.64020396  0.37357229    -0.11300
C1514       C  0.08846426  0.66407725  0.36794099     0.15300
C1515       C  0.08174419  0.68005024  0.38554487     0.02200
C1516       C  0.07473014  0.67167804  0.40767733    -0.15600
C1517       C  0.07482548  0.64760767  0.41308496    -0.10500
C1518       C  0.08345728  0.63189986  0.39592882     0.08900
C1519       C  0.09338800  0.67144308  0.34329167     0.09900
S1520       S  0.08150339  0.71126962  0.38079668    -0.24800
H1521       H  0.06854106  0.68410077  0.42054217     0.20200
S1522       S  0.08768855  0.60108191  0.40130425    -0.30500
H1523       H  0.09498025  0.62784135  0.36032896     0.10500
C1524       C  0.11546250  0.66768375  0.33279430     0.03700
C1525       C  0.11890431  0.67385346  0.30917225    -0.12800
C1526       C  0.10098789  0.68420247  0.29582450    -0.08400
C1527       C  0.07917343  0.68864258  0.30653599     0.07100
C1528       C  0.07542874  0.68177544  0.32990420    -0.13500
S1529       S  0.13958402  0.65592415  0.34966413    -0.30500
H1530       H  0.13574039  0.67090716  0.30097816     0.11400
S1531       S  0.05600861  0.70410280  0.29171071    -0.27600
H1532       H  0.05848844  0.68488803  0.33787637     0.08600
H1533       H  0.09573278  0.60407594  0.42444564     0.27100
H1534       H  0.15647771  0.65705001  0.33172848     0.21900
H1535       H  0.07104214  0.71894405  0.27895355     0.27200
H1536       H  0.09970323  0.71166447  0.36417106     0.16000
C1537       C  0.89954999  0.55861566  0.61481246    -0.11300
C1538       C  0.88369729  0.54104869  0.60820518     0.15300
C1539       C  0.88026273  0.53656170  0.58411572     0.02200
C1540       C  0.89397129  0.54834059  0.56742830    -0.15600
C1541       C  0.91072335  0.56520737  0.57398763    -0.10500
C1542       C  0.91284353  0.57087888  0.59805811     0.08900
C1543       C  0.87326134  0.52599580  0.62684758     0.09900
S1544       S  0.85931201  0.51539671  0.57358246    -0.24800
H1545       H  0.89169858  0.54403662  0.54907404     0.20200
S1546       S  0.93368849  0.59190806  0.60874630    -0.30500
H1547       H  0.90226830  0.56216627  0.63327199     0.10500
C1548       C  0.88115706  0.50288694  0.63034401     0.03700
C1549       C  0.87237956  0.48971183  0.64917702    -0.12800
C1550       C  0.85611876  0.49907804  0.66505033    -0.08400
C1551       C  0.84826504  0.52232574  0.66160558     0.07100
C1552       C  0.85664398  0.53535041  0.64235466    -0.13500
S1553       S  0.90367137  0.49060276  0.61183575    -0.30500
H1554       H  0.87875322  0.47209518  0.65204297     0.11400
S1555       S  0.82926451  0.53717474  0.68188300    -0.27600
H1556       H  0.85087338  0.55325158  0.63995020     0.08600
H1557       H  0.92321107  0.61059060  0.59647649     0.27100
H1558       H  0.90366221  0.46805760  0.62183210     0.21900
H1559       H  0.83632260  0.52475518  0.70201002     0.27200
H1560       H  0.84419458  0.51646190  0.59300853     0.16000
C1561       C  0.88655478  0.50819453  0.42907513    -0.11300
C1562       C  0.86568653  0.51697764  0.43871885     0.15300
C1563       C  0.86714020  0.53310077  0.45735890     0.02200
C1564       C  0.88913448  0.54045345  0.46538805    -0.15600
C1565       C  0.91005880  0.53264869  0.45495520    -0.10500
C1566       C  0.90860351  0.51580728  0.43691666     0.08900
C1567       C  0.84274212  0.50962019  0.42861353     0.09900
S1568       S  0.84165682  0.54577559  0.47105086    -0.24800
H1569       H  0.88982311  0.55328839  0.47929179     0.20200
S1570       S  0.93407169  0.50285627  0.42361521    -0.30500
H1571       H  0.88563115  0.49539111  0.41516326     0.10500
C1572       C  0.83664393  0.51528584  0.40525841     0.03700
C1573       C  0.81421910  0.50975349  0.39689954    -0.12800
C1574       C  0.79763887  0.49850695  0.41118012    -0.08400
C1575       C  0.80416781  0.49156913  0.43409902     0.07100
C1576       C  0.82648516  0.49745298  0.44266007    -0.13500
S1577       S  0.85678521  0.53085096  0.38634651    -0.30500
H1578       H  0.80917502  0.51491627  0.37933028     0.11400
S1579       S  0.78538611  0.47439028  0.45284369    -0.27600
H1580       H  0.83125986  0.49249505  0.46040459     0.08600
H1581       H  0.94727235  0.50205987  0.44446261     0.27100
H1582       H  0.84394800  0.52805449  0.36546360     0.21900
H1583       H  0.77200121  0.46450354  0.43470953     0.27200
H1584       H  0.82789086  0.54681660  0.45060152     0.16000
C1585       C  0.35751828  0.04343727  0.14486539    -0.11300
C1586       C  0.37166469  0.03341844  0.12744723     0.15300
C1587       C  0.37912901  0.01002332  0.13029024     0.02200
C1588       C  0.37176895  0.99710312  0.14982258    -0.15600
C1589       C  0.35831122  0.00721408  0.16773775    -0.10500
C1590       C  0.35130308  0.03083555  0.16519473     0.08900
C1591       C  0.38000259  0.04800975  0.10741201     0.09900
S1592       S  0.39937126  0.99602644  0.11051007    -0.24800
H1593       H  0.37770978  0.97919367  0.15167342     0.20200
S1594       S  0.33669071  0.04665128  0.18806617    -0.30500
H1595       H  0.35225220  0.06155877  0.14313365     0.10500
C1596       C  0.37424216  0.04253128  0.08402490     0.03700
C1597       C  0.38625495  0.05364523  0.06556809    -0.12800
C1598       C  0.40371729  0.07050751  0.06987536    -0.08400
C1599       C  0.40819111  0.07713283  0.09337861     0.07100
C1600       C  0.39617562  0.06597811  0.11177628    -0.13500
S1601       S  0.35183913  0.02110346  0.07771614    -0.30500
H1602       H  0.38233084  0.04885405  0.04763796     0.11400
S1603       S  0.43033917  0.09814136  0.10131284    -0.27600
H1604       H  0.40058387  0.07029999  0.12973708     0.08600
H1605       H  0.35061683  0.03705589  0.20603046     0.27100
H1606       H  0.35327239  0.02259593  0.05311428     0.21900
H1607       H  0.44752924  0.08877691  0.08639076     0.27200
H1608       H  0.41274707  0.01613962  0.10564533     0.16000
C1609       C  0.03458510  0.08682070  0.39912283    -0.11300
C1610       C  0.04569787  0.10353733  0.38486803     0.15300
C1611       C  0.07043077  0.10311809  0.38305356     0.02200
C1612       C  0.08336797  0.08638409  0.39580138    -0.15600
C1613       C  0.07216295  0.06961038  0.41003030    -0.10500
C1614       C  0.04740306  0.07009014  0.41170751     0.08900
C1615       C  0.03095906  0.12242122  0.37436416     0.09900
S1616       S  0.08642158  0.12315104  0.36447925    -0.24800
H1617       H  0.10228835  0.08613635  0.39419625     0.20200
S1618       S  0.03110994  0.05085642  0.43084399    -0.30500
H1619       H  0.01570126  0.08734878  0.40113911     0.10500
C1620       C  0.01283289  0.11750677  0.35821882     0.03700
C1621       C  0.99668099  0.13509931  0.35211716    -0.12800
C1622       C  0.99831661  0.15759007  0.36173489    -0.08400
C1623       C  0.01762638  0.16294594  0.37632929     0.07100
C1624       C  0.03349985  0.14533081  0.38268279    -0.13500
S1625       S  0.00982395  0.08863384  0.34590612    -0.30500
H1626       H  0.98197434  0.13092310  0.34092821     0.11400
S1627       S  0.02269584  0.19183671  0.38781105    -0.27600
H1628       H  0.04750692  0.14933745  0.39485965     0.08600
H1629       H  0.04736300  0.05213042  0.44934077     0.27100
H1630       H  0.99144325  0.09404630  0.33033776     0.21900
H1631       H  0.01173367  0.20382862  0.36919557     0.27200
H1632       H  0.06827463  0.12683754  0.34817238     0.16000
C1633       C  0.29055866  0.29139277  0.90458877    -0.11300
C1634       C  0.26801859  0.28162626  0.90334473     0.15300
C1635       C  0.26334010  0.26514898  0.88556584     0.02200
C1636       C  0.28049220  0.26015632  0.86865833    -0.15600
C1637       C  0.30289520  0.27063798  0.86917605    -0.10500
C1638       C  0.30808049  0.28567381  0.88828801     0.08900
C1639       C  0.24914359  0.29115087  0.91880801     0.09900
S1640       S  0.23568491  0.25001443  0.88338503    -0.24800
H1641       H  0.27599207  0.24815261  0.85473521     0.20200
S1642       S  0.33672402  0.29767223  0.89362575    -0.30500
H1643       H  0.29449004  0.30387164  0.91828074     0.10500
C1644       C  0.25017049  0.28999222  0.94360153     0.03700
C1645       C  0.23346091  0.30217179  0.95712143    -0.12800
C1646       C  0.21562074  0.31529318  0.94631672    -0.08400
C1647       C  0.21360459  0.31476737  0.92160475     0.07100
C1648       C  0.23043466  0.30309916  0.90821771    -0.13500
S1649       S  0.27288324  0.27328086  0.95799095    -0.30500
H1650       H  0.23503342  0.30253093  0.97605266     0.11400
S1651       S  0.19026903  0.32939252  0.90602670    -0.27600
H1652       H  0.22927421  0.30388611  0.88924607     0.08600
H1653       H  0.34800796  0.27617782  0.88972363     0.27100
H1654       H  0.26514572  0.27704949  0.98109150     0.21900
H1655       H  0.17383307  0.32796739  0.92435959     0.27200
H1656       H  0.23044160  0.25073786  0.90747990     0.16000
C1657       C  0.12062105  0.35836015  0.01613660    -0.11300
C1658       C  0.12657230  0.37561229  0.03259090     0.15300
C1659       C  0.15036285  0.38216679  0.03480801     0.02200
C1660       C  0.16728463  0.37197258  0.02026272    -0.15600
C1661       C  0.16115142  0.35589712  0.00271815    -0.10500
C1662       C  0.13736510  0.34907908  0.00071262     0.08900
C1663       C  0.10753636  0.38749012  0.04604224     0.09900
S1664       S  0.16013329  0.40457883  0.05469848    -0.24800
H1665       H  0.18533102  0.37772347  0.02170433     0.20200
S1666       S  0.12651417  0.33066243  0.97756637    -0.30500
H1667       H  0.10243853  0.35319957  0.01427491     0.10500
C1668       C  0.09029542  0.40109061  0.03452693     0.03700
C1669       C  0.07319854  0.41275401  0.04777004    -0.12800
C1670       C  0.07297927  0.41156365  0.07240036    -0.08400
C1671       C  0.08990177  0.39753181  0.08389507     0.07100
C1672       C  0.10698239  0.38578569  0.07066223    -0.13500
S1673       S  0.09072771  0.40478584  0.00300147    -0.30500
H1674       H  0.06026181  0.42347622  0.03891426     0.11400
S1675       S  0.09010715  0.39320880  0.11523692    -0.27600
H1676       H  0.11993724  0.37515530  0.07962204     0.08600
H1677       H  0.14255536  0.33810295  0.96038504     0.27100
H1678       H  0.07019609  0.41826337  0.00116304     0.21900
H1679       H  0.06562343  0.39408714  0.11793791     0.27200
H1680       H  0.14031905  0.41895918  0.05209893     0.16000
C1681       C  0.21704278  0.05073893  0.95411604    -0.11300
C1682       C  0.22451465  0.04610986  0.97717459     0.15300
C1683       C  0.23988439  0.02703906  0.98113113     0.02200
C1684       C  0.24566870  0.01205780  0.96258472    -0.15600
C1685       C  0.23696674  0.01593123  0.93986737    -0.10500
C1686       C  0.22348797  0.03621188  0.93546275     0.08900
C1687       C  0.21338822  0.05919887  0.99689520     0.09900
S1688       S  0.25209847  0.02045134  0.00959306    -0.24800
H1689       H  0.25625459  0.99672718  0.96613862     0.20200
S1690       S  0.21373057  0.04431599  0.90644142    -0.30500
H1691       H  0.20541241  0.06532950  0.95071224     0.10500
C1692       C  0.21438583  0.08383708  0.99879264     0.03700
C1693       C  0.20166216  0.09515670  0.01666719    -0.12800
C1694       C  0.18836381  0.08233312  0.03306200    -0.08400
C1695       C  0.18776085  0.05767643  0.03123978     0.07100
C1696       C  0.20012044  0.04651413  0.01332406    -0.13500
S1697       S  0.23248386  0.10079726  0.97903798    -0.30500
H1698       H  0.20229783  0.11401720  0.01810018     0.11400
S1699       S  0.17043296  0.03944367  0.05042538    -0.27600
H1700       H  0.19884093  0.02767489  0.01177880     0.08600
H1701       H  0.23252721  0.03382490  0.89451482     0.27100
H1702       H  0.22843765  0.12266917  0.98944728     0.21900
H1703       H  0.15090455  0.05439670  0.05012869     0.27200
H1704       H  0.25149529  0.04355162  0.01790959     0.16000
C1705       C  0.24457656  0.04531386  0.16648044    -0.11300
C1706       C  0.24431741  0.02142683  0.17194411     0.15300
C1707       C  0.22318657  0.00870823  0.16959619     0.02200
C1708       C  0.20313888  0.01994737  0.16066625    -0.15600
C1709       C  0.20366945  0.04373604  0.15436895    -0.10500
C1710       C  0.22453239  0.05663710  0.15814264     0.08900
C1711       C  0.26664478  0.01059543  0.17963104     0.09900
S1712       S  0.22082360  0.97810952  0.17712185    -0.24800
H1713       H  0.18719662  0.00995332  0.15815203     0.20200
S1714       S  0.22658641  0.08778936  0.15336472    -0.30500
H1715       H  0.26060285  0.05525533  0.16878038     0.10500
C1716       C  0.28127421  0.99872015  0.16375301     0.03700
C1717       C  0.30342724  0.99095750  0.17118769    -0.12800
C1718       C  0.31137954  0.99503518  0.19412116    -0.08400
C1719       C  0.29647954  0.00677739  0.21004851     0.07100
C1720       C  0.27432745  0.01427281  0.20265593    -0.13500
S1721       S  0.27201882  0.99418975  0.13382775    -0.30500
H1722       H  0.31479750  0.98185897  0.15909540     0.11400
S1723       S  0.30507806  0.01418973  0.23950338    -0.27600
H1724       H  0.26323014  0.02376499  0.21474505     0.08600
H1725       H  0.20371810  0.09261018  0.16114238     0.27100
H1726       H  0.29223754  0.98229126  0.12640542     0.21900
H1727       H  0.32899282  0.01677681  0.23454779     0.27200
H1728       H  0.23926296  0.97745582  0.19345823     0.16000
C1729       C  0.97377098  0.24075985  0.02982502    -0.11300
C1730       C  0.96826789  0.22523227  0.04823920     0.15300
C1731       C  0.94454049  0.21951714  0.05233488     0.02200
C1732       C  0.92721376  0.22830704  0.03733171    -0.15600
C1733       C  0.93286151  0.24208301  0.01762749    -0.10500
C1734       C  0.95651368  0.24869719  0.01411292     0.08900
C1735       C  0.98759694  0.21357950  0.06141526     0.09900
S1736       S  0.93530624  0.19966385  0.07523911    -0.24800
H1737       H  0.90918892  0.22294737  0.04010285     0.20200
S1738       S  0.96640959  0.26510338  0.98891154    -0.30500
H1739       H  0.99193932  0.24533875  0.02665578     0.10500
C1740       C  0.00287909  0.19782976  0.05011414     0.03700
C1741       C  0.02015911  0.18618477  0.06320021    -0.12800
C1742       C  0.02228770  0.18941336  0.08749745    -0.08400
C1743       C  0.00716082  0.20533558  0.09879466     0.07100
C1744       C  0.99002091  0.21721866  0.08566426    -0.13500
S1745       S  0.99958124  0.19140018  0.01925725    -0.30500
H1746       H  0.03172910  0.17393245  0.05458439     0.11400
S1747       S  0.00918739  0.21170803  0.12965757    -0.27600
H1748       H  0.97839043  0.22933024  0.09441553     0.08600
H1749       H  0.95031991  0.25555183  0.97293545     0.27100
H1750       H  0.01872846  0.17605396  0.01740568     0.21900
H1751       H  0.03351553  0.20829739  0.13150736     0.27200
H1752       H  0.95430538  0.18420121  0.07302097     0.16000
C1753       C  0.17758139  0.27984447  0.02073202    -0.11300
C1754       C  0.16412542  0.26445447  0.00712913     0.15300
C1755       C  0.15941732  0.27016082  0.98344571     0.02200
C1756       C  0.16805738  0.29111399  0.97400963    -0.15600
C1757       C  0.18083230  0.30682454  0.98782347    -0.10500
C1758       C  0.18611351  0.30083774  0.01127528     0.08900
C1759       C  0.15478261  0.24294448  0.01833781     0.09900
S1760       S  0.14194374  0.25187023  0.96458439    -0.24800
H1761       H  0.16414368  0.29565107  0.95596106     0.20200
S1762       S  0.20396549  0.31907450  0.02978562    -0.30500
H1763       H  0.18140242  0.27546729  0.03885583     0.10500
C1764       C  0.16941820  0.22380840  0.02365393     0.03700
C1765       C  0.16002212  0.20409587  0.03507781    -0.12800
C1766       C  0.13616317  0.20301413  0.04112784    -0.08400
C1767       C  0.12130246  0.22179429  0.03446643     0.07100
C1768       C  0.13084881  0.24164514  0.02361473    -0.13500
S1769       S  0.20005810  0.22449513  0.01577204    -0.30500
H1770       H  0.17146273  0.18978784  0.03995735     0.11400
S1771       S  0.08993522  0.22127822  0.03846581    -0.27600
H1772       H  0.11948957  0.25613834  0.01899924     0.08600
H1773       H  0.21678711  0.32964222  0.01152999     0.27100
H1774       H  0.20520806  0.20135594  0.02248442     0.21900
H1775       H  0.08752783  0.19723198  0.03389497     0.27200
H1776       H  0.14783493  0.23047987  0.97529898     0.16000
C1777       C  0.04288949  0.00640500  0.20957163    -0.11300
C1778       C  0.05559054  0.98945200  0.22207631     0.15300
C1779       C  0.08035515  0.99086844  0.22229856     0.02200
C1780       C  0.09175184  0.00865803  0.20955558    -0.15600
C1781       C  0.07899200  0.02553966  0.19691041    -0.10500
C1782       C  0.05418968  0.02421496  0.19699396     0.08900
C1783       C  0.04255189  0.96892702  0.23169219     0.09900
S1784       S  0.09834474  0.97063263  0.23865831    -0.24800
H1785       H  0.11071589  0.00954359  0.20982800     0.20200
S1786       S  0.03588617  0.04358087  0.17994522    -0.30500
H1787       H  0.02395855  0.00510976  0.20869398     0.10500
C1788       C  0.02469090  0.97121492  0.24868041     0.03700
C1789       C  0.01049675  0.95182140  0.25431036    -0.12800
C1790       C  0.01381624  0.93012186  0.24335300    -0.08400
C1791       C  0.03274136  0.92759400  0.22747201     0.07100
C1792       C  0.04663045  0.94696030  0.22174073    -0.13500
S1793       S  0.01958716  0.99894147  0.26278428    -0.30500
H1794       H  0.99593467  0.95394043  0.26626299     0.11400
S1795       S  0.03995139  0.90041574  0.21319998    -0.27600
H1796       H  0.06033209  0.94505368  0.20873428     0.08600
H1797       H  0.05043918  0.04307740  0.16005859     0.27100
H1798       H  0.00243135  0.99095519  0.27864316     0.21900
H1799       H  0.02934762  0.88542215  0.22958992     0.27200
H1800       H  0.08148070  0.96536500  0.25588311     0.16000
C1801       C  0.97289749  0.15455677  0.27916868    -0.11300
C1802       C  0.99514633  0.16263200  0.27241508     0.15300
C1803       C  0.00754576  0.17785186  0.28742409     0.02200
C1804       C  0.99779359  0.18409278  0.30899889    -0.15600
C1805       C  0.97582274  0.17565201  0.31600973    -0.10500
C1806       C  0.96325245  0.16068973  0.30091572     0.08900
C1807       C  0.00613202  0.15306179  0.25095556     0.09900
S1808       S  0.03638702  0.18891558  0.28064771    -0.24800
H1809       H  0.00756124  0.19533463  0.32072001     0.20200
S1810       S  0.93573072  0.14763042  0.30914500    -0.30500
H1811       H  0.96350739  0.14253289  0.26792112     0.10500
C1812       C  0.02179794  0.13416087  0.25234916     0.03700
C1813       C  0.03356756  0.12683536  0.23210607    -0.12800
C1814       C  0.03014135  0.13791613  0.21013224    -0.08400
C1815       C  0.01330682  0.15619158  0.20876557     0.07100
C1816       C  0.00171800  0.16359826  0.22914913    -0.13500
S1817       S  0.02711090  0.11961655  0.28011574    -0.30500
H1818       H  0.04590583  0.11256275  0.23367041     0.11400
S1819       S  0.00582814  0.17112398  0.18192575    -0.27600
H1820       H  0.98940559  0.17798472  0.22809265     0.08600
H1821       H  0.94104761  0.14558899  0.33314454     0.27100
H1822       H  0.04339296  0.10316159  0.27184689     0.21900
H1823       H  0.00094539  0.15029088  0.16982572     0.27200
H1824       H  0.03381430  0.18896035  0.25614272     0.16000
C1825       C  0.28940811  0.80366713  0.71192346    -0.11300
C1826       C  0.26902700  0.81726774  0.71079022     0.15300
C1827       C  0.26729912  0.83720155  0.72510929     0.02200
C1828       C  0.28546504  0.84251882  0.74078387    -0.15600
C1829       C  0.30590667  0.82866185  0.74248493    -0.10500
C1830       C  0.30789061  0.80926071  0.72710437     0.08900
C1831       C  0.24926058  0.80885337  0.69604365     0.09900
S1832       S  0.24226497  0.85643180  0.72439776    -0.24800
H1833       H  0.28330561  0.85763673  0.75192665     0.20200
S1834       S  0.33340503  0.79096187  0.72530796    -0.30500
H1835       H  0.29086214  0.78834565  0.70090354     0.10500
C1836       C  0.25098625  0.80754121  0.67137767     0.03700
C1837       C  0.23341339  0.79596245  0.65857459    -0.12800
C1838       C  0.21416304  0.78572031  0.66999787    -0.08400
C1839       C  0.21153576  0.78882730  0.69443328     0.07100
C1840       C  0.22915482  0.80010981  0.70719148    -0.13500
S1841       S  0.27589437  0.82001494  0.65631232    -0.30500
H1842       H  0.23538021  0.79362254  0.63985259     0.11400
S1843       S  0.18640062  0.77815466  0.71041500    -0.27600
H1844       H  0.22755442  0.80139394  0.72607930     0.08600
H1845       H  0.34807713  0.81022002  0.72075687     0.27100
H1846       H  0.26822514  0.81505625  0.63340913     0.21900
H1847       H  0.17077028  0.77904446  0.69133523     0.27200
H1848       H  0.23612997  0.85217980  0.70090904     0.16000
C1849       C  0.30912424  0.91629495  0.81561383    -0.11300
C1850       C  0.31365192  0.91401971  0.83969905     0.15300
C1851       C  0.32814837  0.89555981  0.84753958     0.02200
C1852       C  0.33589528  0.87864706  0.83159461    -0.15600
C1853       C  0.32990152  0.87985487  0.80766785    -0.10500
C1854       C  0.31738948  0.89973846  0.79946608     0.08900
C1855       C  0.30023903  0.92890139  0.85633268     0.09900
S1856       S  0.33672042  0.89229143  0.87783781    -0.24800
H1857       H  0.34594790  0.86394338  0.83817441     0.20200
S1858       S  0.31202311  0.90457480  0.76852951    -0.30500
H1859       H  0.29827675  0.93065566  0.80960307     0.10500
C1860       C  0.30312009  0.95339132  0.85745070     0.03700
C1861       C  0.28841375  0.96660901  0.87210680    -0.12800
C1862       C  0.27078448  0.95585215  0.88558160    -0.08400
C1863       C  0.26841006  0.93125725  0.88492327     0.02300
C1864       C  0.28310446  0.91813121  0.87033634    -0.13500
S1865       S  0.32552840  0.96778226  0.84030122    -0.30500
H1866       H  0.29016206  0.98545242  0.87255122     0.11400
S1867       S  0.24708450  0.91632382  0.90306268    -0.27600
H1868       H  0.28100577  0.89933410  0.86943870     0.08600
H1869       H  0.30035778  0.92611900  0.77060846     0.27100
H1870       H  0.32136952  0.99052877  0.84859601     0.21900
H1871       H  0.25228588  0.89346540  0.89572919     0.27200
H1872       H  0.33518364  0.91616755  0.88343594     0.16000
C1873       C  0.41000741  0.78478464  0.77827690    -0.11300
C1874       C  0.41197020  0.77606396  0.80123815     0.15300
C1875       C  0.39621908  0.78420555  0.81852382     0.02200
C1876       C  0.37906163  0.80077691  0.81251811    -0.15600
C1877       C  0.37688444  0.80931721  0.78946916    -0.10500
C1878       C  0.39291303  0.80143310  0.77228960     0.08900
C1879       C  0.43172057  0.76004734  0.80717277     0.09900
S1880       S  0.39703270  0.77406773  0.84854472    -0.24800
H1881       H  0.36692250  0.80664235  0.82585941     0.20200
S1882       S  0.39360487  0.81300709  0.74283556    -0.30500
H1883       H  0.42237201  0.77909329  0.76507331     0.10500
C1884       C  0.43136927  0.73605989  0.80144514     0.03700
C1885       C  0.44923724  0.72120848  0.80990687    -0.12800
C1886       C  0.46766739  0.72994296  0.82370879    -0.08400
C1887       C  0.46883777  0.75436018  0.82769245     0.07100
C1888       C  0.45083499  0.76898363  0.81967265    -0.13500
S1889       S  0.40720624  0.72405544  0.78498239    -0.30500
H1890       H  0.44785305  0.70255829  0.80723506     0.11400
S1891       S  0.49244482  0.76793369  0.84369521    -0.27600
H1892       H  0.45145858  0.78748270  0.82366696     0.08600
H1893       H  0.38525682  0.83537799  0.74858613     0.27100
H1894       H  0.41635937  0.70132605  0.78289816     0.21900
H1895       H  0.50923255  0.75083327  0.83845761     0.27200
H1896       H  0.40564714  0.75159251  0.84369969     0.16000
C1897       C  0.70270406  0.25748715  0.82567618    -0.11300
C1898       C  0.68793536  0.26465985  0.80736327     0.15300
C1899       C  0.69096071  0.28721581  0.79764600     0.02200
C1900       C  0.70867179  0.30187833  0.80624886    -0.15600
C1901       C  0.72430362  0.29456217  0.82403011    -0.10500
C1902       C  0.72093432  0.27184149  0.83385836     0.08900
C1903       C  0.67085650  0.24766889  0.79744465     0.09900
S1904       S  0.67307793  0.29833880  0.77394465    -0.24800
H1905       H  0.71048927  0.31909699  0.79844730     0.20200
S1906       S  0.73978817  0.25913335  0.85579470    -0.30500
H1907       H  0.70059985  0.24008609  0.83301922     0.10500
C1908       C  0.67816552  0.23081299  0.78107441     0.03700
C1909       C  0.66142543  0.21677969  0.76985424    -0.12800
C1910       C  0.63731061  0.21944966  0.77412345    -0.08400
C1911       C  0.63007398  0.23604188  0.79097241     0.07100
C1912       C  0.64690764  0.24963907  0.80271964    -0.13500
S1913       S  0.70872657  0.22836011  0.77318478    -0.30500
H1914       H  0.66706896  0.20424885  0.75684342     0.11400
S1915       S  0.59974623  0.24237062  0.79655181    -0.27600
H1916       H  0.64120764  0.26279642  0.81508705     0.08600
H1917       H  0.76030430  0.26323852  0.84271214     0.27100
H1918       H  0.70571000  0.21223659  0.75487925     0.21900
H1919       H  0.59353086  0.24243069  0.77268579     0.27200
H1920       H  0.66886341  0.27684404  0.76290977     0.16000
C1921       C  0.80069126  0.29821473  0.91388199    -0.11300
C1922       C  0.82450695  0.30393607  0.91107107     0.15300
C1923       C  0.83126036  0.31727644  0.89127291     0.02200
C1924       C  0.81464022  0.32316741  0.87420302    -0.15600
C1925       C  0.79090148  0.31683021  0.87644156    -0.10500
C1926       C  0.78380453  0.30505285  0.89721225     0.08900
C1927       C  0.84228201  0.29386037  0.92747212     0.09900
S1928       S  0.86094810  0.32714933  0.88655971    -0.24800
H1929       H  0.82056512  0.33253420  0.85877314     0.20200
S1930       S  0.75356651  0.29907971  0.90406287    -0.30500
H1931       H  0.79521808  0.28819928  0.92912257     0.10500
C1932       C  0.84265856  0.29882554  0.95175505     0.03700
C1933       C  0.85954968  0.28803589  0.96628569    -0.12800
C1934       C  0.87617174  0.27258071  0.95695799    -0.08400
C1935       C  0.87644283  0.26866149  0.93250724     0.07100
C1936       C  0.85933687  0.27886557  0.91822868    -0.13500
S1937       S  0.82176183  0.31889142  0.96423646    -0.30500
H1938       H  0.85926553  0.29089472  0.98505031     0.11400
S1939       S  0.89820125  0.25068454  0.91842827    -0.27600
H1940       H  0.85934113  0.27509330  0.89960932     0.08600
H1941       H  0.74496908  0.31981322  0.89382402     0.27100
H1942       H  0.82978900  0.31724005  0.98752837     0.21900
H1943       H  0.91607934  0.25501668  0.93485563     0.27200
H1944       H  0.86678877  0.32898610  0.91045696     0.16000
C1945       C  0.80312841  0.38856618  0.78680900    -0.11300
C1946       C  0.78546864  0.40188147  0.77610465     0.15300
C1947       C  0.76180875  0.39567634  0.77991941     0.02200
C1948       C  0.75639525  0.37645238  0.79444055    -0.15600
C1949       C  0.77411626  0.36321844  0.80541006    -0.10500
C1950       C  0.79781752  0.36919848  0.80094416     0.08900
C1951       C  0.79281180  0.42066194  0.75952165     0.09900
S1952       S  0.73782595  0.41159610  0.76685163    -0.24800
H1953       H  0.73817655  0.37206564  0.79753504     0.20200
S1954       S  0.82224330  0.35191766  0.81109239    -0.30500
H1955       H  0.82133158  0.39280906  0.78336516     0.10500
C1956       C  0.80308511  0.44154874  0.76758509     0.03700
C1957       C  0.81431693  0.45657109  0.75155625    -0.12800
C1958       C  0.81549791  0.45117192  0.72756323    -0.08400
C1959       C  0.80385931  0.43100423  0.71933811     0.07100
C1960       C  0.79253631  0.41604344  0.73539088    -0.13500
S1961       S  0.80285905  0.44844786  0.79845791    -0.30500
H1962       H  0.82340949  0.47193776  0.75788250     0.11400
S1963       S  0.80567494  0.42262948  0.68896105    -0.27600
H1964       H  0.78479950  0.39984479  0.72937582     0.08600
H1965       H  0.81091706  0.33025709  0.80815608     0.27100
H1966       H  0.81307121  0.47076169  0.79631903     0.21900
H1967       H  0.78985643  0.40378485  0.69025810     0.27200
H1968       H  0.74952614  0.43315784  0.76485070     0.16000
C1969       C  0.74990881  0.29796298  0.15367687    -0.11300
C1970       C  0.74622684  0.29467776  0.17786467     0.15300
C1971       C  0.72723982  0.28058876  0.18534980     0.02200
C1972       C  0.71328718  0.26933397  0.16872164    -0.15600
C1973       C  0.71787374  0.27138944  0.14464138    -0.10500
C1974       C  0.73628932  0.28611847  0.13700274     0.08900
C1975       C  0.76316147  0.30475204  0.19492956     0.09900
S1976       S  0.72054950  0.27514841  0.21582736    -0.24800
H1977       H  0.69925538  0.25796505  0.17468250     0.20200
S1978       S  0.74447212  0.28939861  0.10659325    -0.30500
H1979       H  0.76430425  0.30889108  0.14778947     0.10500
C1980       C  0.78653430  0.29676732  0.19613656     0.03700
C1981       C  0.80118019  0.30449962  0.21432372    -0.12800
C1982       C  0.79299500  0.31975225  0.23176666    -0.08400
C1983       C  0.76953072  0.32785771  0.23029317     0.07100
C1984       C  0.75521755  0.32079867  0.21163332    -0.13500
S1985       S  0.79741964  0.27554235  0.17544679    -0.30500
H1986       H  0.81903901  0.29820159  0.21523719     0.11400
S1987       S  0.75581437  0.34527253  0.25262526    -0.27600
H1988       H  0.73720729  0.32676690  0.21090781     0.08600
H1989       H  0.73686753  0.26730743  0.09906941     0.27100
H1990       H  0.82074556  0.27523605  0.18343074     0.21900
H1991       H  0.76530355  0.33228146  0.27139643     0.27200
H1992       H  0.74397526  0.27383052  0.22336435     0.16000
C1993       C  0.88137480  0.27816150  0.31532956    -0.11300
C1994       C  0.88883238  0.26119410  0.29930361     0.15300
C1995       C  0.88032192  0.26217260  0.27605733     0.02200
C1996       C  0.86493099  0.28015891  0.26936841    -0.15600
C1997       C  0.85707380  0.29708074  0.28545645    -0.10500
C1998       C  0.86547047  0.29575329  0.30888669     0.08900
C1999       C  0.90435736  0.24211022  0.30802656     0.09900
S2000       S  0.88808990  0.24090940  0.25412398    -0.24800
H2001       H  0.85880344  0.28070214  0.25138038     0.20200
S2002       S  0.85565829  0.31478756  0.33196782    -0.30500
H2003       H  0.88752167  0.27726259  0.33330921     0.10500
C2004       C  0.92855969  0.24135604  0.30299056     0.03700
C2005       C  0.94275368  0.22426178  0.31385586    -0.12800
C2006       C  0.93321667  0.20794826  0.32974577    -0.08400
C2007       C  0.90865933  0.20795576  0.33353139     0.07100
C2008       C  0.89467532  0.22506193  0.32285821    -0.13500
S2009       S  0.94164168  0.26320356  0.28414713    -0.30500
H2010       H  0.96153101  0.22464379  0.31122394     0.11400
S2011       S  0.89393074  0.18709478  0.35231499    -0.27600
H2012       H  0.87603497  0.22537116  0.32650037     0.08600
H2013       H  0.83179199  0.31255464  0.32614077     0.27100
H2014       H  0.96406898  0.25305643  0.28327495     0.21900
H2015       H  0.91091460  0.16945327  0.35084328     0.27200
H2016       H  0.89223845  0.22213914  0.26957174     0.16000
C2017       C  0.79478753  0.45444208  0.32891583    -0.11300
C2018       C  0.80178461  0.43294631  0.33863544     0.15300
C2019       C  0.80179812  0.43022439  0.36333187     0.02200
C2020       C  0.79350887  0.44840711  0.37751107    -0.15600
C2021       C  0.78452466  0.46902339  0.36757394    -0.10500
C2022       C  0.78609905  0.47239694  0.34305509     0.08900
C2023       C  0.80746335  0.41334931  0.32254314     0.09900
S2024       S  0.81042272  0.40343717  0.37777143    -0.24800
H2025       H  0.79213889  0.44559829  0.39628191     0.20200
S2026       S  0.77627924  0.49880990  0.32867457    -0.30500
H2027       H  0.79518063  0.45686969  0.31004796     0.10500
C2028       C  0.78996581  0.40303443  0.30848713     0.03700
C2029       C  0.79560254  0.38388235  0.29432248    -0.12800
C2030       C  0.81840624  0.37456361  0.29367592    -0.08400
C2031       C  0.83616494  0.38574952  0.30697121     0.07100
C2032       C  0.83043327  0.40470975  0.32143440    -0.13500
S2033       S  0.76002898  0.41333711  0.30950806    -0.30500
H2034       H  0.78183994  0.37559898  0.28436377     0.11400
S2035       S  0.86657662  0.37744990  0.30566187    -0.27600
H2036       H  0.84402306  0.41292522  0.33181584     0.08600
H2037       H  0.77829332  0.51338117  0.34835719     0.27100
H2038       H  0.75097789  0.39841632  0.29216782     0.21900
H2039       H  0.86622905  0.37244421  0.28151918     0.27200
H2040       H  0.80204925  0.38826929  0.36034223     0.16000
C2041       C  0.32424539  0.27028703  0.18424004    -0.11300
C2042       C  0.33405655  0.29279667  0.18440345     0.15300
C2043       C  0.32732640  0.30853292  0.20219874     0.02200
C2044       C  0.31049392  0.30181065  0.21879952    -0.15600
C2045       C  0.30039464  0.27942072  0.21855376    -0.10500
C2046       C  0.30741744  0.26350006  0.20095845     0.08900
C2047       C  0.34897841  0.30064032  0.16445047     0.09900
S2048       S  0.33941118  0.33760166  0.20449030    -0.24800
H2049       H  0.30542722  0.31412476  0.23225300     0.20200
S2050       S  0.29440856  0.23499177  0.19769366    -0.30500
H2051       H  0.32899434  0.25827846  0.17040335     0.10500
C2052       C  0.37284327  0.29448514  0.16249774     0.03700
C2053       C  0.38699062  0.30582259  0.14564349    -0.12800
C2054       C  0.37753467  0.32279438  0.13041895    -0.08400
C2055       C  0.35311554  0.32687808  0.13083204     0.07100
C2056       C  0.33924883  0.31613749  0.14800898    -0.13500
S2057       S  0.38565507  0.27360606  0.18256105    -0.30500
H2058       H  0.40566988  0.30259252  0.14539431     0.11400
S2059       S  0.33867348  0.34599542  0.11013886    -0.27600
H2060       H  0.32076881  0.32036068  0.14897292     0.08600
H2061       H  0.27217442  0.24119059  0.20624432     0.27100
H2062       H  0.40726551  0.27163802  0.17085643     0.21900
H2063       H  0.35492232  0.34264287  0.09190720     0.27200
H2064       H  0.36149899  0.33215162  0.19509304     0.16000
C2065       C  0.29153310  0.19305519  0.29815894    -0.11300
C2066       C  0.28565977  0.19724722  0.32169383     0.15300
C2067       C  0.27332372  0.21786603  0.32726297     0.02200
C2068       C  0.26833115  0.23424518  0.30961391    -0.15600
C2069       C  0.27493061  0.23056914  0.28611266    -0.10500
C2070       C  0.28599565  0.20923091  0.28029113     0.08900
C2071       C  0.29511275  0.18133840  0.34022069     0.09900
S2072       S  0.26373725  0.22449425  0.35664102    -0.24800
H2073       H  0.25956979  0.25029331  0.31448931     0.20200
S2074       S  0.29244236  0.20189355  0.25023052    -0.30500
H2075       H  0.30098016  0.17723930  0.29390578     0.10500
C2076       C  0.28934640  0.15732480  0.34145071     0.03700
C2077       C  0.30099492  0.14272239  0.35769275    -0.12800
C2078       C  0.31824865  0.15169124  0.37277061    -0.08400
C2079       C  0.32269800  0.17608673  0.37254235     0.07100
C2080       C  0.31138791  0.19042590  0.35616984    -0.13500
S2081       S  0.26745395  0.14522749  0.32211455    -0.30500
H2082       H  0.29762950  0.12408897  0.35771687     0.11400
S2083       S  0.34310162  0.19021110  0.39215317    -0.27600
H2084       H  0.31575762  0.20887376  0.35548195     0.08600
H2085       H  0.30230086  0.17976794  0.25463152     0.27100
H2086       H  0.26844773  0.12219204  0.33084331     0.21900
H2087       H  0.34257702  0.17311208  0.40987437     0.27200
H2088       H  0.26133366  0.20112444  0.36407624     0.16000
C2089       C  0.15620755  0.34673257  0.28896370    -0.11300
C2090       C  0.18012098  0.35246549  0.28785606     0.15300
C2091       C  0.18797618  0.37341741  0.29827854     0.02200
C2092       C  0.17214900  0.38729547  0.31075481    -0.15600
C2093       C  0.14848576  0.38095717  0.31291332    -0.10500
C2094       C  0.14037582  0.36076723  0.30136840     0.08900
C2095       C  0.19691985  0.33439877  0.27983968     0.09900
S2096       S  0.21833822  0.38222235  0.29825138    -0.24800
H2097       H  0.17856583  0.40263928  0.31981597     0.20200
S2098       S  0.11069553  0.35074906  0.30437431    -0.30500
H2099       H  0.15012759  0.33049154  0.28137023     0.10500
C2100       C  0.20648861  0.31835259  0.29600104     0.03700
C2101       C  0.22309390  0.30201908  0.28845644    -0.12800
C2102       C  0.23033538  0.30096562  0.26486687    -0.08400
C2103       C  0.21975701  0.31646067  0.24843854     0.07100
C2104       C  0.20341011  0.33312130  0.25615120    -0.13500
S2105       S  0.19775844  0.31887732  0.32647317    -0.30500
H2106       H  0.23088358  0.29035315  0.30126744     0.11400
S2107       S  0.22547491  0.31536086  0.21738556    -0.27600
H2108       H  0.19563387  0.34513161  0.24361311     0.08600
H2109       H  0.10183248  0.36940122  0.29095241     0.27100
H2110       H  0.20875713  0.29786157  0.33314229     0.21900
H2111       H  0.22614384  0.29078197  0.21649105     0.27200
H2112       H  0.22438021  0.37138066  0.27706006     0.16000
C2113       C  0.79727686  0.67970832  0.22355117    -0.11300
C2114       C  0.79074781  0.67746127  0.24723256     0.15300
C2115       C  0.77530623  0.65925190  0.25377545     0.02200
C2116       C  0.76562499  0.64484535  0.23652027    -0.15600
C2117       C  0.77113220  0.64780874  0.21267084    -0.10500
C2118       C  0.78763476  0.66511099  0.20620439     0.08900
C2119       C  0.79783443  0.69599694  0.26411650     0.09900
S2120       S  0.76646023  0.65413859  0.28374796    -0.24800
H2121       H  0.75291749  0.63168757  0.24166588     0.20200
S2122       S  0.79459495  0.67055877  0.17582137    -0.30500
H2123       H  0.80888070  0.69385310  0.21851401     0.10500
C2124       C  0.82140526  0.69975934  0.27049466     0.03700
C2125       C  0.82705816  0.71797464  0.28600888    -0.12800
C2126       C  0.80959543  0.73231949  0.29571446    -0.08400
C2127       C  0.78591642  0.72837075  0.28940532     0.07100
C2128       C  0.78040004  0.71041954  0.27360565    -0.13500
S2129       S  0.84419252  0.68089051  0.25949226    -0.30500
H2130       H  0.84516530  0.72088112  0.29088093     0.11400
S2131       S  0.76262533  0.74689393  0.30008720    -0.27600
H2132       H  0.76237559  0.70768402  0.26832399     0.08600
H2133       H  0.81288161  0.68657897  0.17977639     0.27100
H2134       H  0.86281053  0.69105381  0.27202048     0.21900
H2135       H  0.74382766  0.73385662  0.29095853     0.27200
H2136       H  0.78713428  0.66273021  0.29402729     0.16000
C2137       C  0.89288715  0.82678048  0.32453657    -0.11300
C2138       C  0.89885328  0.82894647  0.30080909     0.15300
C2139       C  0.88745901  0.81467432  0.28418741     0.02200
C2140       C  0.86945701  0.79964379  0.29140855    -0.15600
C2141       C  0.86275028  0.79788514  0.31509827    -0.10500
C2142       C  0.87516665  0.81131443  0.33197055     0.08900
C2143       C  0.91655260  0.84664091  0.29368493     0.09900
S2144       S  0.89489706  0.81502526  0.25341968    -0.24800
H2145       H  0.86043641  0.78942355  0.27824109     0.20200
S2146       S  0.86952051  0.80846947  0.36309199    -0.30500
H2147       H  0.90208297  0.83744707  0.33719596     0.10500
C2148       C  0.90996656  0.86711987  0.28152658     0.03700
C2149       C  0.92734903  0.88165985  0.27197038    -0.12800
C2150       C  0.95122532  0.87634888  0.27457470    -0.08400
C2151       C  0.95782381  0.85678668  0.28825410     0.07100
C2152       C  0.94038096  0.84215538  0.29776636    -0.13500
S2153       S  0.87939784  0.87428182  0.27749499    -0.30500
H2154       H  0.92236453  0.89670869  0.26148696     0.11400
S2155       S  0.98824526  0.84912665  0.29188471    -0.27600
H2156       H  0.94525219  0.82647661  0.30732124     0.08600
H2157       H  0.88573081  0.82532377  0.37076919     0.27100
H2158       H  0.88296913  0.89583163  0.26601492     0.21900
H2159       H  0.98470424  0.83034953  0.30753732     0.27200
H2160       H  0.91874537  0.82039133  0.25646809     0.16000
C2161       C  0.75589930  0.81714026  0.43867600    -0.11300
C2162       C  0.74762356  0.80380219  0.41979589     0.15300
C2163       C  0.72330981  0.79959016  0.41768341     0.02200
C2164       C  0.70782122  0.80969929  0.43373655    -0.15600
C2165       C  0.71600448  0.82454184  0.45144827    -0.10500
C2166       C  0.74037073  0.82760160  0.45443458     0.08900
C2167       C  0.76450433  0.79619212  0.40161769     0.09900
S2168       S  0.71079598  0.78291535  0.39399982    -0.24800
H2169       H  0.68915507  0.80737691  0.43127687     0.20200
S2170       S  0.75264468  0.84522750  0.47754380    -0.30500
H2171       H  0.77455208  0.82014610  0.44059072     0.10500
C2172       C  0.77505104  0.81266309  0.38644009     0.03700
C2173       C  0.79017518  0.80496406  0.36875736    -0.12800
C2174       C  0.79485247  0.78107944  0.36561412    -0.08400
C2175       C  0.78467567  0.76462609  0.38121542     0.07100
C2176       C  0.76950973  0.77233908  0.39891824    -0.13500
S2177       S  0.76831108  0.84345634  0.38876152    -0.30500
H2178       H  0.79787773  0.81759592  0.35682410     0.11400
S2179       S  0.79092066  0.73376987  0.38001787    -0.27600
H2180       H  0.76158366  0.75969462  0.41072010     0.08600
H2181       H  0.73389632  0.84228192  0.49329080     0.27100
H2182       H  0.78209182  0.85110863  0.36975874     0.21900
H2183       H  0.81440697  0.73649287  0.37301930     0.27200
H2184       H  0.72682328  0.79026148  0.37674338     0.16000
C2185       C  0.26642790  0.90554694  0.28149301    -0.11300
C2186       C  0.28989728  0.90515348  0.27409987     0.15300
C2187       C  0.30440683  0.88649300  0.28148672     0.02200
C2188       C  0.29547381  0.86927257  0.29653436    -0.15600
C2189       C  0.27211638  0.86973597  0.30427375    -0.10500
C2190       C  0.25744775  0.88819386  0.29658190     0.08900
C2191       C  0.29959933  0.92523944  0.26049690     0.09900
S2192       S  0.33458942  0.88369277  0.27247608    -0.24800
H2193       H  0.30693080  0.85521820  0.30220061     0.20200
S2194       S  0.22781714  0.89173395  0.30671794    -0.30500
H2195       H  0.25529827  0.92000250  0.27623809     0.10500
C2196       C  0.29325057  0.92972787  0.23697244     0.03700
C2197       C  0.30568746  0.94663675  0.22393669    -0.12800
C2198       C  0.32418833  0.95936402  0.23402898    -0.08400
C2199       C  0.32910624  0.95609700  0.25821770     0.07100
C2200       C  0.31687392  0.93910864  0.27102145    -0.13500
S2201       S  0.27071390  0.91263030  0.22291925    -0.30500
H2202       H  0.30203954  0.94873506  0.20541495     0.11400
S2203       S  0.35121993  0.97237705  0.27389437    -0.27600
H2204       H  0.32140873  0.93609917  0.28926489     0.08600
H2205       H  0.23193724  0.88287018  0.32940577     0.27100
H2206       H  0.26943959  0.92612777  0.20223776     0.21900
H2207       H  0.35136869  0.99201386  0.25904209     0.27200
H2208       H  0.33173456  0.89431320  0.25035059     0.16000
C2209       C  0.18243012  0.79347688  0.30796587    -0.11300
C2210       C  0.18488010  0.76994415  0.31470203     0.15300
C2211       C  0.20415155  0.76355649  0.32888666     0.02200
C2212       C  0.22123080  0.78023662  0.33452493    -0.15600
C2213       C  0.21943625  0.80370280  0.32702143    -0.10500
C2214       C  0.19903424  0.81042571  0.31445597     0.08900
C2215       C  0.16874827  0.75208990  0.30456197     0.09900
S2216       S  0.20809067  0.73426993  0.34013162    -0.24800
H2217       H  0.23633387  0.77456822  0.34457987     0.20200
S2218       S  0.19250252  0.84030059  0.30696646    -0.30500
H2219       H  0.16752125  0.79866719  0.29735765     0.10500
C2220       C  0.14441843  0.75175456  0.30918909     0.03700
C2221       C  0.12993127  0.73556303  0.29749751    -0.12800
C2222       C  0.13934088  0.71955511  0.28144957    -0.08400
C2223       C  0.16387698  0.71898069  0.27811639     0.07100
C2224       C  0.17815770  0.73537851  0.28932401    -0.13500
S2225       S  0.13181589  0.77193520  0.32987546    -0.30500
H2226       H  0.11114325  0.73604371  0.30005168     0.11400
S2227       S  0.17806835  0.69778293  0.25963081    -0.27600
H2228       H  0.19684346  0.73526437  0.28594156     0.08600
H2229       H  0.20079375  0.84918495  0.32840308     0.27100
H2230       H  0.10886421  0.76295949  0.32906248     0.21900
H2231       H  0.16114744  0.68014013  0.26279165     0.27200
H2232       H  0.18410792  0.72864206  0.34111661     0.16000
C2233       C  0.33854428  0.79386695  0.44391736    -0.11300
C2234       C  0.34470353  0.79767925  0.42039933     0.15300
C2235       C  0.36727418  0.79115112  0.41264478     0.02200
C2236       C  0.38244551  0.77939447  0.42805090    -0.15600
C2237       C  0.37581038  0.77449638  0.45125685    -0.10500
C2238       C  0.35382155  0.78223388  0.45938342     0.08900
C2239       C  0.32617428  0.80540570  0.40379762     0.09900
S2240       S  0.37707601  0.79596109  0.38293023    -0.24800
H2241       H  0.39919125  0.77320035  0.42164188     0.20200
S2242       S  0.34430185  0.77544585  0.48881987    -0.30500
H2243       H  0.32118642  0.79880547  0.44972676     0.10500
C2244       C  0.31396236  0.78902233  0.39000774     0.03700
C2245       C  0.29651865  0.79673781  0.37445084    -0.12800
C2246       C  0.29103761  0.82057699  0.37221831    -0.08400
C2247       C  0.30283410  0.83694721  0.38655318     0.07100
C2248       C  0.32022178  0.82915102  0.40227070    -0.13500
S2249       S  0.32061635  0.75820258  0.39224434    -0.30500
H2250       H  0.28752160  0.78419520  0.36348797     0.11400
S2251       S  0.29520020  0.86760136  0.38563929    -0.27600
H2252       H  0.32936353  0.84151973  0.41331051     0.08600
H2253       H  0.32225334  0.78632241  0.48732786     0.27100
H2254       H  0.30320415  0.75038938  0.37665503     0.21900
H2255       H  0.31109986  0.87503706  0.40293733     0.27200
H2256       H  0.36297143  0.81561376  0.37842679     0.16000
C2257       C  0.81419572  0.80980833  0.70158445    -0.11300
C2258       C  0.83012294  0.79239940  0.69498005     0.15300
C2259       C  0.82878359  0.77021701  0.70571275     0.02200
C2260       C  0.81186949  0.76601524  0.72301530    -0.15600
C2261       C  0.79595452  0.78346413  0.73012088    -0.10500
C2262       C  0.79722862  0.80575175  0.71904532     0.08900
C2263       C  0.84941318  0.79882051  0.67874307     0.09900
S2264       S  0.84864255  0.74677102  0.69863303    -0.24800
H2265       H  0.81128896  0.74882679  0.73107715     0.20200
S2266       S  0.77902056  0.82995552  0.72802102    -0.30500
H2267       H  0.81575421  0.82696843  0.69360431     0.10500
C2268       C  0.84610851  0.79995120  0.65424916     0.03700
C2269       C  0.86418533  0.80869948  0.63989635    -0.12800
C2270       C  0.88528156  0.81667115  0.64969676    -0.08400
C2271       C  0.88893127  0.81440164  0.67413386     0.07100
C2272       C  0.87102308  0.80543101  0.68832437    -0.13500
S2273       S  0.81854477  0.79113923  0.64149124    -0.30500
H2274       H  0.86135912  0.81076353  0.62120849     0.11400
S2275       S  0.91545941  0.82386932  0.68857258    -0.27600
H2276       H  0.87360863  0.80443800  0.70714364     0.08600
H2277       H  0.78487631  0.84525654  0.70951992     0.27100
H2278       H  0.82466537  0.79574297  0.61801075     0.21900
H2279       H  0.92996862  0.82473765  0.66870658     0.27200
H2280       H  0.85285816  0.75367154  0.67531193     0.16000
C2281       C  0.76983030  0.70748713  0.83118774    -0.11300
C2282       C  0.79392955  0.70399279  0.83437111     0.15300
C2283       C  0.80993184  0.71676016  0.82042268     0.02200
C2284       C  0.80159857  0.73245479  0.80353379    -0.15600
C2285       C  0.77747378  0.73618747  0.80020921    -0.10500
C2286       C  0.76141233  0.72319266  0.81415898     0.08900
C2287       C  0.80220352  0.68547851  0.85064673     0.09900
S2288       S  0.84130496  0.71384110  0.82331086    -0.24800
H2289       H  0.81423935  0.74224490  0.79325179     0.20200
S2290       S  0.73010090  0.72457608  0.81028078    -0.30500
H2291       H  0.75750557  0.69731406  0.84149627     0.10500
C2292       C  0.80209960  0.68839103  0.87520837     0.03700
C2293       C  0.81376824  0.67198882  0.88949943    -0.12800
C2294       C  0.82588298  0.65315843  0.87954554    -0.08400
C2295       C  0.82516551  0.64985249  0.85505228     0.07100
C2296       C  0.81288355  0.66573947  0.84094788    -0.13500
S2297       S  0.78895468  0.71398160  0.88809314    -0.30500
H2298       H  0.81477007  0.67462248  0.90827234     0.11400
S2299       S  0.84113646  0.62631675  0.84141979    -0.27600
H2300       H  0.81276204  0.66365080  0.82207662     0.08600
H2301       H  0.73117849  0.72523930  0.78561927     0.27100
H2302       H  0.79410656  0.70829004  0.91157892     0.21900
H2303       H  0.83631572  0.63252894  0.81800125     0.27200
H2304       H  0.84134701  0.70898356  0.84751820     0.16000
C2305       C  0.69199727  0.82629162  0.76540099    -0.11300
C2306       C  0.68505185  0.82788427  0.78892931     0.15300
C2307       C  0.69661990  0.81412741  0.80598449     0.02200
C2308       C  0.71549649  0.80009392  0.79942616    -0.15600
C2309       C  0.72308421  0.79878797  0.77597992    -0.10500
C2310       C  0.71055305  0.81163997  0.75867080     0.08900
C2311       C  0.66647756  0.84463826  0.79575716     0.09900
S2312       S  0.68869000  0.81425581  0.83664982    -0.24800
H2313       H  0.72456468  0.79035836  0.81302723     0.20200
S2314       S  0.71654448  0.80954308  0.72773201    -0.30500
H2315       H  0.68287477  0.83651593  0.75219697     0.10500
C2316       C  0.67223745  0.86555682  0.80736669     0.03700
C2317       C  0.65450648  0.87850345  0.81826433    -0.12800
C2318       C  0.63109515  0.87099622  0.81778490    -0.08400
C2319       C  0.62515147  0.85086984  0.80481980     0.07100
C2320       C  0.64285733  0.83809370  0.79360833    -0.13500
S2321       S  0.70237844  0.87502479  0.80941477    -0.30500
H2322       H  0.65899652  0.89391864  0.82825333     0.11400
S2323       S  0.59571279  0.83961489  0.80354208    -0.27600
H2324       H  0.63841158  0.82200038  0.78470347     0.08600
H2325       H  0.72065819  0.78528846  0.72829210     0.27100
H2326       H  0.69803079  0.89584343  0.82169005     0.21900
H2327       H  0.59070937  0.84360811  0.82732715     0.27200
H2328       H  0.66465938  0.81840842  0.83331730     0.16000
loop_ 
_geom_bond_atom_site_label_1 
_geom_bond_atom_site_label_2 
_geom_bond_distance 
_geom_bond_site_symmetry_2 
_ccdc_geom_bond_type 
C1            N2   1.360       .  A
C1            N6   1.362       .  A
C1         C2261   1.498       .  S
N2            C3   1.358       .  A
C3            N4   1.356       .  A
C3         C2285   1.489       .  S
N4            C5   1.360       .  A
C5            N6   1.363       .  A
C5         C2309   1.493       .  S
C7            N8   1.367       .  A
C7           N12   1.363       .  A
C7         C2213   1.500       .  S
N8            C9   1.365       .  A
C9           N10   1.358       .  A
C9         C2189   1.486       .  S
N10          C11   1.355       .  A
C11          N12   1.358       .  A
C11        C2246   1.484       .  S
C13          N14   1.359       .  A
C13          N18   1.357       .  A
C13        C2174   1.482       .  S
N14          C15   1.361       .  A
C15          N16   1.362       .  A
C15        C2126   1.489       .  S
N16          C17   1.363       .  A
C17          N18   1.356       .  A
C17        C2141   1.494       .  S
C19          N20   1.359       .  A
C19          N24   1.361       .  A
C19        C2102   1.495       .  S
N20          C21   1.359       .  A
C21          N22   1.363       .  A
C21        C2069   1.494       .  S
N22          C23   1.363       .  A
C23          N24   1.363       .  A
C23        C2045   1.486       .  S
C25          N26   1.361       .  A
C25          N30   1.362       .  A
C25        C2030   1.495       .  S
N26          C27   1.359       .  A
C27          N28   1.360       .  A
C27        C1982   1.492       .  S
N28          C29   1.361       .  A
C29          N30   1.362       .  A
C29        C1997   1.498       .  S
C31          N32   1.360       .  A
C31          N36   1.357       .  A
C31        C1949   1.490       .  S
N32          C33   1.365       .  A
C33          N34   1.364       .  A
C33        C1901   1.506       .  S
N34          C35   1.363       .  A
C35          N36   1.359       .  A
C35        C1925   1.496       .  S
C37          N38   1.360       .  A
C37          N42   1.361       .  A
C37        C1829   1.505       .  S
N38          C39   1.358       .  A
C39          N40   1.363       .  A
C39        C1853   1.495       .  S
N40          C41   1.363       .  A
C41          N42   1.362       .  A
C41        C1877   1.488       .  S
O43         Mg45   2.139       .  S
O43         Mg51   2.146       .  S
O43          C78   1.238       .  S
C44          O57   1.239       .  S
C44          O81   1.274       .  A
C44          H83   1.083       .  S
Mg45         O74   2.146       .  S
Mg45         O89   2.298       .  S
Mg45         O85   2.248       .  S
Mg45         O56   2.294       .  S
O46         Mg88   2.145       .  S
O46         Mg71   2.139       .  S
O46          C67   1.239       .  S
O47          C78   1.272       .  A
O47         Mg71   2.300       .  S
C48        C1694   1.488       .  S
C48          O50   1.276       .  A
C48          O62   1.278       .  A
O49          C77   1.272       .  A
O49         Mg51   2.308       .  S
O50         Mg82   2.302       .  S
Mg51         O57   2.154       .  S
Mg51         O65   2.300       .  S
Mg51         O53   2.348       .  S
C52        C1709   1.483       .  S
C52          O90   1.272       .  A
C52          O58   1.280       .  A
O53          C60   1.279       .  A
H54          C67   1.082       .  S
C55          O69   1.238       .  S
C55          O70   1.272       .  A
C55          H80   1.082       .  S
O56          C79   1.271       .  A
O57         Mg71   2.144       .  S
O58         Mg88   2.344       .  S
C59        C1781   1.487       .  S
C59          O72   1.276       .  A
C59          O64   1.273       .  A
C60        C1814   1.503       .  S
C60          O87   1.271       .  A
Mg61         O68   2.132       .  S
Mg61         O69   2.138       .  S
Mg61         O62   2.322       .  S
Mg61         O63   2.304       .  S
Mg61         O90   2.252       .  S
O63          C67   1.273       .  A
O64         Mg71   2.296       .  S
O65          C84   1.276       .  A
O66          C86   1.279       .  A
O66         Mg82   2.332       .  S
O68         Mg82   2.143       .  S
O68          C79   1.238       .  S
O69         Mg88   2.146       .  S
O70         Mg82   2.303       .  S
Mg71         O87   2.247       .  S
O72         Mg88   2.302       .  S
H73          C78   1.080       .  S
O74         Mg82   2.152       .  S
O74          C77   1.237       .  S
H75          C77   1.082       .  S
H76          C79   1.081       .  S
O81         Mg88   2.313       .  S
C84        C1742   1.480       .  S
C84          O89   1.274       .  A
O85          C86   1.270       .  A
C86        C1766   1.485       .  S
N91          C95   1.360       .  A
N91          C92   1.363       .  A
N91        C1757   1.438       .  S
C92        C1661   1.492   1_556  S
C92          C93   1.382       .  A
C93          H96   1.082       .  S
C93          C94   1.375       .  A
C94          H97   1.082       .  S
C94          C95   1.382       .  A
C95        C1646   1.489       .  S
N98         C102   1.361       .  A
N98          C99   1.359       .  A
N98        C1805   1.439       .  S
C99        C1622   1.489       .  S
C99         C100   1.382       .  A
C100        H103   1.082       .  S
C100        C101   1.375       .  A
C101        H104   1.082       .  S
C101        C102   1.385       .  A
C102       C2006   1.490       .  S
N105        C109   1.364       .  A
N105        C106   1.364       .  A
N105       C1718   1.444       .  S
C106       C1589   1.493   1_565  S
C106        C107   1.383       .  A
C107        H110   1.083       .  S
C107        C108   1.371       .  A
C108        H111   1.082       .  S
C108        C109   1.383       .  A
C109       C2198   1.490       .  S
O112       Mg114   2.143   1_655  S
O112       Mg120   2.148       .  S
O112        C147   1.238       .  S
C113        O126   1.237       .  S
C113        O150   1.271       .  A
C113        H152   1.083       .  S
Mg114       O143   2.142       .  S
Mg114       O158   2.293   1_455  S
Mg114       O154   2.250       .  S
Mg114       O125   2.297       .  S
O115       Mg157   2.154       .  S
O115       Mg140   2.138       .  S
O115        C136   1.239   1_655  S
O116        C147   1.271       .  A
O116       Mg140   2.299       .  S
C117       C1517   1.496       .  S
C117        O119   1.278       .  A
C117        O131   1.276       .  A
O118        C146   1.272       .  A
O118       Mg120   2.307       .  S
O119       Mg151   2.301       .  S
Mg120       O126   2.130       .  S
Mg120       O134   2.268       .  S
Mg120       O122   2.341       .  S
C121       C1493   1.489       .  S
C121        O159   1.273       .  A
C121        O127   1.278       .  A
O122        C129   1.278       .  A
H123        C136   1.082       .  S
C124        O138   1.238   1_655  S
C124        O139   1.273   1_655  A
C124        H149   1.080       .  S
O125        C148   1.272       .  A
O126       Mg140   2.141       .  S
O127       Mg157   2.331   1_455  S
C128       C1565   1.491       .  S
C128        O141   1.277       .  A
C128        O133   1.274       .  A
C129       C1541   1.493       .  S
C129        O156   1.272       .  A
Mg130       O137   2.138       .  S
Mg130       O138   2.140       .  S
Mg130       O131   2.305       .  S
Mg130       O132   2.300       .  S
Mg130       O159   2.259       .  S
O132        C136   1.273       .  A
O133       Mg140   2.290       .  S
O134        C153   1.274       .  A
O135        C155   1.282       .  A
O135       Mg151   2.361       .  S
O137       Mg151   2.151       .  S
O137        C148   1.238       .  S
O138       Mg157   2.154   1_455  S
O139       Mg151   2.308       .  S
Mg140       O156   2.257       .  S
O141       Mg157   2.304       .  S
H142        C147   1.081   1_455  S
O143       Mg151   2.144       .  S
O143        C146   1.238   1_455  S
H144        C146   1.082       .  S
H145        C148   1.082       .  S
O150       Mg157   2.298       .  S
C153       C1469   1.486       .  S
C153        O158   1.273       .  A
O154        C155   1.272       .  A
C155       C1454   1.491       .  S
N160        C164   1.359       .  A
N160        C161   1.361       .  A
N160       C1574   1.443       .  S
C161       C1430   1.481       .  S
C161        C162   1.382       .  A
C162        H165   1.082       .  S
C162        C163   1.372       .  A
C163        H166   1.082       .  S
C163        C164   1.381       .  A
C164       C2021   1.481       .  S
N167        C171   1.361       .  A
N167        C168   1.366       .  A
N167       C1526   1.443       .  S
C168       C1397   1.497       .  S
C168        C169   1.386       .  A
C169        H172   1.082       .  S
C169        C170   1.371       .  A
C170        H173   1.082       .  S
C170        C171   1.379       .  A
C171       C2222   1.488       .  S
N174        C178   1.359       .  A
N174        C175   1.361       .  A
N174       C1478   1.443       .  S
C175       C1382   1.483       .  S
C175        C176   1.383       .  A
C176        H179   1.082       .  S
C176        C177   1.371       .  A
C177        H180   1.082       .  S
C177        C178   1.379       .  A
C178       C2270   1.477       .  S
O181       Mg183   2.141       .  S
O181       Mg189   2.152       .  S
O181        C216   1.237       .  S
C182        O195   1.239   1_545  S
C182        O219   1.274       .  A
C182        H221   1.082       .  S
Mg183       O212   2.144       .  S
Mg183       O227   2.292       .  S
Mg183       O223   2.250       .  S
Mg183       O194   2.289       .  S
O184       Mg226   2.142       .  S
O184       Mg209   2.134   1_545  S
O184        C205   1.238   1_545  S
O185        C216   1.272       .  A
O185       Mg209   2.301       .  S
C186       C1325   1.478       .  S
C186        O188   1.275   1_545  A
C186        O200   1.275       .  A
O187        C215   1.271       .  A
O187       Mg189   2.301       .  S
O188       Mg220   2.287       .  S
Mg189       O195   2.156       .  S
Mg189       O203   2.293       .  S
Mg189       O191   2.332       .  S
C190       C1358   1.487       .  S
C190        O228   1.271       .  A
C190        O196   1.280       .  A
O191        C198   1.278       .  A
H192        C205   1.081       .  S
C193        O207   1.238       .  S
C193        O208   1.272       .  A
C193        H218   1.080       .  S
O194        C217   1.270       .  A
O195       Mg209   2.145       .  S
O196       Mg226   2.346       .  S
C197       C1613   1.489       .  S
C197        O210   1.276       .  A
C197        O202   1.275       .  A
C198       C1277   1.483       .  S
C198        O225   1.270       .  A
Mg199       O206   2.127   1_545  S
Mg199       O207   2.146       .  S
Mg199       O200   2.314       .  S
Mg199       O201   2.302   1_545  S
Mg199       O228   2.236       .  S
O201        C205   1.272       .  A
O202       Mg209   2.306   1_545  S
O203        C222   1.275       .  A
O204        C224   1.279       .  A
O204       Mg220   2.336       .  S
O206       Mg220   2.146       .  S
O206        C217   1.237       .  S
O207       Mg226   2.151       .  S
O208       Mg220   2.299   1_545  S
Mg209       O225   2.241       .  S
O210       Mg226   2.308       .  S
H211        C216   1.081       .  S
O212       Mg220   2.141       .  S
O212        C215   1.237       .  S
H213        C215   1.082       .  S
H214        C217   1.080       .  S
O219       Mg226   2.315       .  S
C222       C1373   1.481       .  S
C222        O227   1.274       .  A
O223        C224   1.271       .  A
C224       C1310   1.483       .  S
N229        C233   1.357       .  A
N229        C230   1.360       .  A
N229       C1301   1.440       .  S
C230       C1445   1.485       .  S
C230        C231   1.382       .  A
C231        H234   1.082       .  S
C231        C232   1.375       .  A
C232        H235   1.082       .  S
C232        C233   1.382       .  A
C233       C1838   1.483       .  S
N236        C240   1.361       .  A
N236        C237   1.359       .  A
N236       C1349   1.441       .  S
C237       C1262   1.486       .  S
C237        C238   1.381       .  A
C238        H241   1.082       .  S
C238        C239   1.372       .  A
C239        H242   1.082       .  S
C239        C240   1.384       .  A
C240       C2078   1.487       .  S
N243        C247   1.360       .  A
N243        C244   1.363       .  A
N243       C1286   1.442       .  S
C244       C1790   1.489   1_655  S
C244        C245   1.384       .  A
C245        H248   1.082       .  S
C245        C246   1.373       .  A
C246        H249   1.082       .  S
C246        C247   1.381       .  A
C247       C2150   1.484       .  S
O250       Mg252   2.129       .  S
O250       Mg258   2.141       .  S
O250        C285   1.237       .  S
C251        O264   1.237   1_554  S
C251        O288   1.272       .  A
C251        H290   1.080       .  S
Mg252       O281   2.142       .  S
Mg252       O296   2.309       .  S
Mg252       O292   2.235       .  S
Mg252       O263   2.302       .  S
O253       Mg295   2.151       .  S
O253       Mg278   2.127   1_554  S
O253        C274   1.238   1_554  S
O254        C285   1.271       .  A
O254       Mg278   2.302       .  S
C255       C1157   1.493   1_556  S
C255        O257   1.274       .  A
C255        O269   1.276   1_556  A
O256        C284   1.273       .  A
O256       Mg258   2.308       .  S
O257       Mg289   2.283       .  S
Mg258       O264   2.153       .  S
Mg258       O272   2.291       .  S
Mg258       O260   2.335       .  S
C259       C1190   1.484       .  S
C259        O297   1.272       .  A
C259        O265   1.277       .  A
O260        C267   1.278       .  A
H261        C274   1.081       .  S
C262        O276   1.237       .  S
C262        O277   1.271       .  A
C262        H287   1.081       .  S
O263        C286   1.271       .  A
O264       Mg278   2.140       .  S
O265       Mg295   2.320       .  S
C266       C1118   1.487       .  S
C266        O279   1.275       .  A
C266        O271   1.274       .  A
C267       C1142   1.482       .  S
C267        O294   1.268       .  A
Mg268       O275   2.139       .  S
Mg268       O276   2.146   1_556  S
Mg268       O269   2.313   1_556  S
Mg268       O270   2.296       .  S
Mg268       O297   2.245   1_556  S
O270        C274   1.271       .  A
O271       Mg278   2.300   1_554  S
O272        C291   1.276       .  A
O273        C293   1.276       .  A
O273       Mg289   2.325       .  S
O275       Mg289   2.144       .  S
O275        C286   1.237       .  S
O276       Mg295   2.144       .  S
O277       Mg289   2.301   1_554  S
Mg278       O294   2.229       .  S
O279       Mg295   2.291       .  S
H280        C285   1.082       .  S
O281       Mg289   2.150       .  S
O281        C284   1.238       .  S
H282        C284   1.081       .  S
H283        C286   1.081       .  S
O288       Mg295   2.302       .  S
C291       C1214   1.492       .  S
C291        O296   1.275       .  A
O292        C293   1.270       .  A
C293       C1238   1.495       .  S
N298        C302   1.355       .  A
N298        C299   1.358       .  A
N298       C1229   1.434       .  S
C299       C1085   1.490       .  S
C299        C300   1.385       .  A
C300        H303   1.082       .  S
C300        C301   1.378       .  A
C301        H304   1.082       .  S
C301        C302   1.381       .  A
C302       C1061   1.482       .  S
N305        C309   1.356       .  A
N305        C306   1.355       .  A
N305       C1181   1.436       .  S
C306       C1037   1.481       .  S
C306        C307   1.382       .  A
C307        H310   1.082       .  S
C307        C308   1.376       .  A
C308        H311   1.082       .  S
C308        C309   1.382       .  A
C309       C1973   1.479       .  S
N312        C316   1.353       .  A
N312        C313   1.357       .  A
N312       C1133   1.436       .  S
C313       C1013   1.483       .  S
C313        C314   1.384       .  A
C314        H317   1.082       .  S
C314        C315   1.377       .  A
C315        H318   1.082       .  S
C315        C316   1.381       .  A
C316       C2294   1.477       .  S
O319       Mg321   2.128   1_655  S
O319       Mg327   2.142       .  S
O319        C354   1.238       .  S
C320        O333   1.239       .  S
C320        O357   1.274       .  A
C320        H359   1.082       .  S
Mg321       O350   2.147       .  S
Mg321       O365   2.323       .  S
Mg321       O361   2.232       .  S
Mg321       O332   2.304   1_455  S
O322       Mg364   2.142       .  S
O322       Mg347   2.135       .  S
O322        C343   1.237       .  S
O323        C354   1.272       .  A
O323       Mg347   2.296       .  S
C324       C1670   1.488       .  S
C324        O326   1.277       .  A
C324        O338   1.274       .  A
O325        C353   1.273       .  A
O325       Mg327   2.313   1_455  S
O326       Mg358   2.312       .  S
Mg327       O333   2.155       .  S
Mg327       O341   2.308       .  S
Mg327       O329   2.347       .  S
C328        C950   1.489       .  S
C328        O366   1.271       .  A
C328        O334   1.282       .  A
O329        C336   1.280       .  A
H330        C343   1.081       .  S
C331        O345   1.238   1_455  S
C331        O346   1.273       .  A
C331        H356   1.082       .  S
O332        C355   1.272       .  A
O333       Mg347   2.144       .  S
O334       Mg364   2.355       .  S
C335       C1022   1.480       .  S
C335        O348   1.275       .  A
C335        O340   1.274       .  A
C336        C974   1.486       .  S
C336        O363   1.271       .  A
Mg337       O344   2.137   1_655  S
Mg337       O345   2.141       .  S
Mg337       O338   2.301   1_655  S
Mg337       O339   2.295       .  S
Mg337       O366   2.244       .  S
O339        C343   1.270       .  A
O340       Mg347   2.296       .  S
O341        C360   1.277   1_655  A
O342        C362   1.278       .  A
O342       Mg358   2.332       .  S
O344       Mg358   2.141       .  S
O344        C355   1.238   1_455  S
O345       Mg364   2.143       .  S
O346       Mg358   2.306       .  S
Mg347       O363   2.242       .  S
O348       Mg364   2.293       .  S
H349        C354   1.081       .  S
O350       Mg358   2.169       .  S
O350        C353   1.238       .  S
H351        C353   1.082       .  S
H352        C355   1.082       .  S
O357       Mg364   2.312       .  S
C360       C1406   1.496       .  S
C360        O365   1.277       .  A
O361        C362   1.269       .  A
C362        C998   1.475       .  S
N367        C371   1.362       .  A
N367        C368   1.363       .  A
N367        C965   1.442       .  S
C368       C1109   1.489       .  S
C368        C369   1.383       .  A
C369        H372   1.082       .  S
C369        C370   1.372       .  A
C370        H373   1.082       .  S
C370        C371   1.382       .  A
C371       C2117   1.489       .  S
N374        C378   1.359       .  A
N374        C375   1.361       .  A
N374        C989   1.441       .  S
C375       C1502   1.485       .  S
C375        C376   1.382       .  A
C376        H379   1.082       .  S
C376        C377   1.374       .  A
C377        H380   1.082       .  S
C377        C378   1.380       .  A
C378       C2093   1.483       .  S
N381        C385   1.361       .  A
N381        C382   1.363       .  A
N381        C941   1.443       .  S
C382       C1733   1.487   1_556  S
C382        C383   1.382       .  A
C383        H386   1.082       .  S
C383        C384   1.371       .  A
C384        H387   1.082       .  S
C384        C385   1.381       .  A
C385       C1934   1.484       .  S
O388       Mg390   2.141       .  S
O388       Mg396   2.148       .  S
O388        C423   1.239       .  S
C389        O402   1.238       .  S
C389        O426   1.272       .  A
C389        H428   1.080       .  S
Mg390       O419   2.135       .  S
Mg390       O434   2.313       .  S
Mg390       O430   2.256       .  S
Mg390       O401   2.302       .  S
O391       Mg433   2.145       .  S
O391       Mg416   2.126       .  S
O391        C412   1.237       .  S
O392        C423   1.273   1_554  A
O392       Mg416   2.303       .  S
C393        C845   1.492       .  S
C393        O395   1.274       .  A
C393        O407   1.273       .  A
O394        C422   1.272       .  A
O394       Mg396   2.306       .  S
O395       Mg427   2.283       .  S
Mg396       O402   2.138       .  S
Mg396       O410   2.269       .  S
Mg396       O398   2.332       .  S
C397       C1598   1.489       .  S
C397        O435   1.273       .  A
C397        O403   1.279       .  A
O398        C405   1.277   1_556  A
H399        C412   1.082       .  S
C400        O414   1.239       .  S
C400        O415   1.272       .  A
C400        H425   1.080       .  S
O401        C424   1.272       .  A
O402       Mg416   2.137   1_556  S
O403       Mg433   2.335       .  S
C404        C917   1.483       .  S
C404        O417   1.274       .  A
C404        O409   1.275       .  A
C405       C1046   1.481       .  S
C405        O432   1.270       .  A
Mg406       O413   2.140   1_554  S
Mg406       O414   2.143   1_554  S
Mg406       O407   2.276   1_554  S
Mg406       O408   2.291       .  S
Mg406       O435   2.265       .  S
O408        C412   1.270       .  A
O409       Mg416   2.292       .  S
O410        C429   1.274       .  A
O411        C431   1.280       .  A
O411       Mg427   2.345       .  S
O413       Mg427   2.152       .  S
O413        C424   1.238       .  S
O414       Mg433   2.134   1_556  S
O415       Mg427   2.301       .  S
Mg416       O432   2.247       .  S
O417       Mg433   2.281       .  S
H418        C423   1.082       .  S
O419       Mg427   2.144       .  S
O419        C422   1.238       .  S
H420        C422   1.081       .  S
H421        C424   1.081       .  S
O426       Mg433   2.305   1_556  S
C429        C893   1.488       .  S
C429        O434   1.276       .  A
O430        C431   1.271       .  A
C431        C869   1.496       .  S
N436        C440   1.366       .  A
N436        C437   1.368       .  A
N436        C902   1.446       .  S
C437        C821   1.495       .  S
C437        C438   1.383       .  A
C438        H441   1.082       .  S
C438        C439   1.370       .  A
C439        H442   1.082       .  S
C439        C440   1.381       .  A
C440       C1910   1.494       .  S
N443        C447   1.357       .  A
N443        C444   1.359       .  A
N443        C926   1.437       .  S
C444       C1166   1.484       .  S
C444        C445   1.381       .  A
C445        H448   1.082       .  S
C445        C446   1.376       .  A
C446        H449   1.082       .  S
C446        C447   1.384       .  A
C447       C2054   1.488       .  S
N450        C454   1.358       .  A
N450        C451   1.357       .  A
N450        C854   1.437       .  S
C451       C1685   1.489   1_565  S
C451        C452   1.383       .  A
C452        H455   1.082       .  S
C452        C453   1.379       .  A
C453        H456   1.082       .  S
C453        C454   1.384       .  A
C454       C1862   1.490       .  S
O457       Mg459   2.128       .  S
O457       Mg465   2.145       .  S
O457        C492   1.237       .  S
C458        O471   1.239       .  S
C458        O495   1.273       .  A
C458        H497   1.081       .  S
Mg459       O488   2.143       .  S
Mg459       O503   2.302       .  S
Mg459       O499   2.244       .  S
Mg459       O470   2.298       .  S
O460       Mg502   2.147       .  S
O460       Mg485   2.134       .  S
O460        C481   1.237       .  S
O461        C492   1.271       .  A
O461       Mg485   2.296       .  S
C462       C1094   1.490       .  S
C462        O464   1.275       .  A
C462        O476   1.278       .  A
O463        C491   1.272       .  A
O463       Mg465   2.302       .  S
O464       Mg496   2.280       .  S
Mg465       O471   2.152       .  S
Mg465       O479   2.289       .  S
Mg465       O467   2.327       .  S
C466        C725   1.491       .  S
C466        O504   1.273       .  A
C466        O472   1.281       .  A
O467        C474   1.277       .  A
H468        C481   1.082       .  S
C469        O483   1.238       .  S
C469        O484   1.273       .  A
C469        H494   1.082       .  S
O470        C493   1.271       .  A
O471       Mg485   2.145       .  S
O472       Mg502   2.342       .  S
C473        C749   1.495       .  S
C473        O486   1.278       .  A
C473        O478   1.274       .  A
C474        C773   1.483       .  S
C474        O501   1.272       .  A
Mg475       O482   2.137       .  S
Mg475       O483   2.151       .  S
Mg475       O476   2.326       .  S
Mg475       O477   2.299       .  S
Mg475       O504   2.256       .  S
O477        C481   1.271       .  A
O478       Mg485   2.297       .  S
O479        C498   1.275       .  A
O480        C500   1.277       .  A
O480       Mg496   2.334       .  S
O482       Mg496   2.146       .  S
O482        C493   1.238       .  S
O483       Mg502   2.159       .  S
O484       Mg496   2.306       .  S
Mg485       O501   2.245       .  S
O486       Mg502   2.316       .  S
H487        C492   1.081       .  S
O488       Mg496   2.143       .  S
O488        C491   1.238       .  S
H489        C491   1.081       .  S
H490        C493   1.082       .  S
O495       Mg502   2.308       .  S
C498       C1421   1.492       .  S
C498        O503   1.275       .  A
O499        C500   1.271       .  A
C500        C797   1.498       .  S
N505        C509   1.353       .  A
N505        C506   1.356       .  A
N505        C782   1.435       .  S
C506        C701   1.483       .  S
C506        C507   1.384       .  A
C507        H510   1.082       .  S
C507        C508   1.377       .  A
C508        H511   1.082       .  S
C508        C509   1.382       .  A
C509       C2165   1.478       .  S
N512        C516   1.362       .  A
N512        C513   1.359       .  A
N512        C734   1.439       .  S
C513       C1205   1.483       .  S
C513        C514   1.379       .  A
C514        H517   1.082       .  S
C514        C515   1.374       .  A
C515        H518   1.082       .  S
C515        C516   1.385       .  A
C516       C1886   1.491       .  S
N519        C523   1.361       .  A
N519        C520   1.363       .  A
N519        C806   1.441       .  S
C520       C1550   1.489       .  S
C520        C521   1.383       .  A
C521        H524   1.082       .  S
C521        C522   1.373       .  A
C522        H525   1.082       .  S
C522        C523   1.381       .  A
C523       C1958   1.487       .  S
O526       Mg528   2.129   1_565  S
O526       Mg534   2.142       .  S
O526        C561   1.236       .  S
C527        O540   1.239       .  S
C527        O564   1.274       .  A
C527        H566   1.082       .  S
Mg528       O557   2.141       .  S
Mg528       O572   2.290       .  S
Mg528       O568   2.236       .  S
Mg528       O539   2.298   1_545  S
O529       Mg571   2.147       .  S
O529       Mg554   2.139       .  S
O529        C550   1.238       .  S
O530        C561   1.270       .  A
O530       Mg554   2.295       .  S
C531        C830   1.491       .  S
C531        O533   1.276       .  A
C531        O545   1.278       .  A
O532        C560   1.274       .  A
O532       Mg534   2.312   1_545  S
O533       Mg565   2.299       .  S
Mg534       O540   2.159       .  S
Mg534       O548   2.309       .  S
Mg534       O536   2.348       .  S
C535        C638   1.485       .  S
C535        O573   1.272       .  A
C535        O541   1.280       .  A
O536        C543   1.280       .  A
H537        C550   1.081       .  S
C538        O552   1.238   1_545  S
C538        O553   1.273       .  A
C538        H563   1.082       .  S
O539        C562   1.271   1_565  A
O540       Mg554   2.147       .  S
O541       Mg571   2.340       .  S
C542        C710   1.492       .  S
C542        O555   1.276       .  A
C542        O547   1.272       .  A
C543        C686   1.480       .  S
C543        O570   1.270       .  A
Mg544       O551   2.135   1_565  S
Mg544       O552   2.146       .  S
Mg544       O545   2.325   1_565  S
Mg544       O546   2.303       .  S
Mg544       O573   2.255       .  S
O546        C550   1.272       .  A
O547       Mg554   2.289       .  S
O548        C567   1.277   1_565  A
O549        C569   1.278       .  A
O549       Mg565   2.340       .  S
O551       Mg565   2.141       .  S
O551        C562   1.238       .  S
O552       Mg571   2.156       .  S
O553       Mg565   2.309       .  S
Mg554       O570   2.242       .  S
O555       Mg571   2.307       .  S
H556        C561   1.081       .  S
O557       Mg565   2.159       .  S
O557        C560   1.238       .  S
H558        C560   1.081       .  S
H559        C562   1.081   1_565  S
O564       Mg571   2.311       .  S
C567       C1253   1.485       .  S
C567        O572   1.273       .  A
O568        C569   1.270       .  A
C569        C662   1.495       .  S
N574        C578   1.359       .  A
N574        C575   1.364       .  A
N574        C677   1.442       .  S
C575        C758   1.493       .  S
C575        C576   1.386       .  A
C576        H579   1.082       .  S
C576        C577   1.374       .  A
C577        H580   1.082       .  S
C577        C578   1.378       .  A
C578       C2237   1.482       .  S
N581        C585   1.360       .  A
N581        C582   1.357       .  A
N581        C653   1.437       .  S
C582       C1334   1.486       .  S
C582        C583   1.381       .  A
C583        H586   1.082       .  S
C583        C584   1.375       .  A
C584        H587   1.082       .  S
C584        C585   1.385       .  A
C585        C605   1.489       .  S
N588        C592   1.358       .  A
N588        C589   1.363       .  A
N588        C629   1.443       .  S
C589        C878   1.491       .  S
C589        C590   1.385       .  A
C590        H593   1.082       .  S
C590        C591   1.373       .  A
C591        H594   1.082       .  S
C591        C592   1.380       .  A
C592       C2318   1.481       .  S
C595        N596   1.365       .  A
C595        N600   1.365       .  A
C595       C1637   1.508       .  S
N596        C597   1.362       .  A
C597        N598   1.359       .  A
C597        C614   1.496       .  S
N598        C599   1.358       .  A
C599        N600   1.363       .  A
C599       C1070   1.486       .  S
C601        H611   1.084       .  S
C601        C602   1.401       .  A
C601        C606   1.398       .  A
C602        C607   1.491       .  S
C602        C603   1.415       .  A
C603        C604   1.407       .  A
C603        S608   1.803       .  S
C604        H609   1.084       .  S
C604        C605   1.406       .  A
C605        C606   1.417       .  A
C606        S610   1.805       .  S
C607        C612   1.409       .  A
C607        C616   1.403       .  A
S608        H624   1.406       .  S
S610        H621   1.403       .  S
C612        C613   1.406       .  A
C612        S617   1.807       .  S
C613        H618   1.082       .  S
C613        C614   1.410       .  A
C614        C615   1.419       .  A
C615        C616   1.405       .  A
C615        S619   1.802       .  S
C616        H620   1.084       .  S
S617        H622   1.407       .  S
S619        H623   1.407       .  S
C625        H635   1.084       .  S
C625        C626   1.403       .  A
C625        C630   1.400       .  A
C626        C631   1.487       .  S
C626        C627   1.414       .  A
C627        C628   1.402       .  A
C627        S632   1.803       .  S
C628        H633   1.083       .  S
C628        C629   1.404       .  A
C629        C630   1.413       .  A
C630        S634   1.801       .  S
C631        C636   1.412       .  A
C631        C640   1.402       .  A
S632        H648   1.406       .  S
S634        H645   1.402       .  S
C636        C637   1.407       .  A
C636        S641   1.807       .  S
C637        H642   1.082       .  S
C637        C638   1.406       .  A
C638        C639   1.417       .  A
C639        C640   1.400       .  A
C639        S643   1.804       .  S
C640        H644   1.084       .  S
S641        H646   1.407       .  S
S643        H647   1.407   1_565  S
C649        H659   1.084       .  S
C649        C650   1.403       .  A
C649        C654   1.402       .  A
C650        C655   1.479       .  S
C650        C651   1.413       .  A
C651        C652   1.396       .  A
C651        S656   1.805       .  S
C652        H657   1.084       .  S
C652        C653   1.400       .  A
C653        C654   1.411       .  A
C654        S658   1.800       .  S
C655        C660   1.406       .  A
C655        C664   1.402       .  A
S656        H672   1.405       .  S
S658        H669   1.404       .  S
C660        C661   1.398       .  A
C660        S665   1.810       .  S
C661        H666   1.081       .  S
C661        C662   1.412       .  A
C662        C663   1.419       .  A
C663        C664   1.404       .  A
C663        S667   1.801       .  S
C664        H668   1.083       .  S
S665        H670   1.407       .  S
S667        H671   1.408       .  S
C673        H683   1.084       .  S
C673        C674   1.405       .  A
C673        C678   1.402       .  A
C674        C679   1.487       .  S
C674        C675   1.413       .  A
C675        C676   1.399       .  A
C675        S680   1.804       .  S
C676        H681   1.083       .  S
C676        C677   1.403       .  A
C677        C678   1.413       .  A
C678        S682   1.801       .  S
C679        C684   1.412       .  A
C679        C688   1.403       .  A
S680        H696   1.406       .  S
S682        H693   1.400       .  S
C684        C685   1.406       .  A
C684        S689   1.806       .  S
C685        H690   1.082       .  S
C685        C686   1.403       .  A
C686        C687   1.413       .  A
C687        C688   1.402       .  A
C687        S691   1.808       .  S
C688        H692   1.083       .  S
S689        H694   1.407       .  S
S691        H695   1.407       .  S
C697        H707   1.083       .  S
C697        C698   1.402       .  A
C697        C702   1.401       .  A
C698        C703   1.486       .  S
C698        C699   1.414       .  A
C699        C700   1.405       .  A
C699        S704   1.802       .  S
C700        H705   1.083       .  S
C700        C701   1.404       .  A
C701        C702   1.411       .  A
C702        S706   1.807       .  S
C703        C708   1.412       .  A
C703        C712   1.400       .  A
S704        H720   1.406       .  S
S706        H717   1.407       .  S
C708        C709   1.408       .  A
C708        S713   1.807       .  S
C709        H714   1.082       .  S
C709        C710   1.406       .  A
C710        C711   1.420       .  A
C711        C712   1.401       .  A
C711        S715   1.804       .  S
C712        H716   1.084       .  S
S713        H718   1.406       .  S
S715        H719   1.407       .  S
C721        H731   1.084       .  S
C721        C722   1.403       .  A
C721        C726   1.400       .  A
C722        C727   1.492       .  S
C722        C723   1.415       .  A
C723        C724   1.404       .  A
C723        S728   1.803       .  S
C724        H729   1.084       .  S
C724        C725   1.407       .  A
C725        C726   1.418       .  A
C726        S730   1.803       .  S
C727        C732   1.413       .  A
C727        C736   1.405       .  A
S728        H744   1.406       .  S
S730        H741   1.407       .  S
C732        C733   1.405       .  A
C732        S737   1.807       .  S
C733        H738   1.081       .  S
C733        C734   1.401       .  A
C734        C735   1.412       .  A
C735        C736   1.401       .  A
C735        S739   1.804       .  S
C736        H740   1.084       .  S
S737        H742   1.407       .  S
S739        H743   1.400       .  S
C745        H755   1.083       .  S
C745        C746   1.403       .  A
C745        C750   1.405       .  A
C746        C751   1.496       .  S
C746        C747   1.416       .  A
C747        C748   1.407       .  A
C747        S752   1.804       .  S
C748        H753   1.084       .  S
C748        C749   1.406       .  A
C749        C750   1.419       .  A
C750        S754   1.810       .  S
C751        C756   1.415       .  A
C751        C760   1.401       .  A
S752        H768   1.406       .  S
S754        H765   1.407       .  S
C756        C757   1.410       .  A
C756        S761   1.806       .  S
C757        H762   1.082       .  S
C757        C758   1.405       .  A
C758        C759   1.419       .  A
C759        C760   1.399       .  A
C759        S763   1.806       .  S
C760        H764   1.084       .  S
S761        H766   1.407       .  S
S763        H767   1.403       .  S
C769        H779   1.084       .  S
C769        C770   1.404       .  A
C769        C774   1.405       .  A
C770        C775   1.478       .  S
C770        C771   1.410       .  A
C771        C772   1.394       .  A
C771        S776   1.807       .  S
C772        H777   1.084       .  S
C772        C773   1.406       .  A
C773        C774   1.416       .  A
C774        S778   1.802       .  S
C775        C780   1.410       .  A
C775        C784   1.402       .  A
S776        H792   1.405       .  S
S778        H789   1.407       .  S
C780        C781   1.402       .  A
C780        S785   1.806       .  S
C781        H786   1.082       .  S
C781        C782   1.401       .  A
C782        C783   1.410       .  A
C783        C784   1.398       .  A
C783        S787   1.802       .  S
C784        H788   1.084       .  S
S785        H790   1.407       .  S
S787        H791   1.404       .  S
C793        H803   1.082       .  S
C793        C794   1.403       .  A
C793        C798   1.408       .  A
C794        C799   1.484       .  S
C794        C795   1.409       .  A
C795        C796   1.396       .  A
C795        S800   1.806       .  S
C796        H801   1.083       .  S
C796        C797   1.412       .  A
C797        C798   1.421       .  A
C798        S802   1.809       .  S
C799        C804   1.410       .  A
C799        C808   1.404       .  A
S800        H816   1.405       .  S
S802        H813   1.407       .  S
C804        C805   1.401       .  A
C804        S809   1.807       .  S
C805        H810   1.082       .  S
C805        C806   1.403       .  A
C806        C807   1.416       .  A
C807        C808   1.401       .  A
C807        S811   1.804       .  S
C808        H812   1.084       .  S
S809        H814   1.407       .  S
S811        H815   1.403       .  S
C817        H827   1.084       .  S
C817        C818   1.401       .  A
C817        C822   1.400       .  A
C818        C823   1.497       .  S
C818        C819   1.417       .  A
C819        C820   1.409       .  A
C819        S824   1.802       .  S
C820        H825   1.083       .  S
C820        C821   1.406       .  A
C821        C822   1.420       .  A
C822        S826   1.807       .  S
C823        C828   1.414       .  A
C823        C832   1.404       .  A
S824        H840   1.406       .  S
S826        H837   1.402       .  S
C828        C829   1.410       .  A
C828        S833   1.806       .  S
C829        H834   1.082       .  S
C829        C830   1.406       .  A
C830        C831   1.416       .  A
C831        C832   1.403       .  A
C831        S835   1.803       .  S
C832        H836   1.083       .  S
S833        H838   1.407       .  S
S835        H839   1.407       .  S
C841        H851   1.083       .  S
C841        C842   1.401       .  A
C841        C846   1.406       .  A
C842        C847   1.475       .  S
C842        C843   1.407       .  A
C843        C844   1.394       .  A
C843        S848   1.806       .  S
C844        H849   1.084       .  S
C844        C845   1.411       .  A
C845        C846   1.420       .  A
C846        S850   1.809       .  S
C847        C852   1.408       .  A
C847        C856   1.401   1_545  A
S848        H864   1.405       .  S
S850        H861   1.407       .  S
C852        C853   1.400       .  A
C852        S857   1.806       .  S
C853        H858   1.082       .  S
C853        C854   1.401   1_545  A
C854        C855   1.412       .  A
C855        C856   1.398       .  A
C855        S859   1.801       .  S
C856        H860   1.084       .  S
S857        H862   1.407       .  S
S859        H863   1.406       .  S
C865        H875   1.083   1_545  S
C865        C866   1.400   1_545  A
C865        C870   1.402       .  A
C866        C871   1.490       .  S
C866        C867   1.413       .  A
C867        C868   1.406   1_565  A
C867        S872   1.804       .  S
C868        H873   1.083       .  S
C868        C869   1.409       .  A
C869        C870   1.422       .  A
C870        S874   1.812       .  S
C871        C876   1.412       .  A
C871        C880   1.401       .  A
S872        H888   1.406       .  S
S874        H885   1.406       .  S
C876        C877   1.406       .  A
C876        S881   1.806       .  S
C877        H882   1.081       .  S
C877        C878   1.405       .  A
C878        C879   1.418       .  A
C879        C880   1.401       .  A
C879        S883   1.805       .  S
C880        H884   1.084       .  S
S881        H886   1.407       .  S
S883        H887   1.404       .  S
C889        H899   1.084       .  S
C889        C890   1.403       .  A
C889        C894   1.401       .  A
C890        C895   1.486       .  S
C890        C891   1.412       .  A
C891        C892   1.400       .  A
C891        S896   1.805       .  S
C892        H897   1.083       .  S
C892        C893   1.407       .  A
C893        C894   1.417       .  A
C894        S898   1.803       .  S
C895        C900   1.410       .  A
C895        C904   1.402       .  A
S896        H912   1.406       .  S
S898        H909   1.407       .  S
C900        C901   1.404       .  A
C900        S905   1.806       .  S
C901        H906   1.082       .  S
C901        C902   1.406       .  A
C902        C903   1.416       .  A
C903        C904   1.399       .  A
C903        S907   1.800       .  S
C904        H908   1.084       .  S
S905        H910   1.407       .  S
S907        H911   1.401       .  S
C913        H923   1.083       .  S
C913        C914   1.404       .  A
C913        C918   1.407       .  A
C914        C919   1.479       .  S
C914        C915   1.408       .  A
C915        C916   1.396       .  A
C915        S920   1.805       .  S
C916        H921   1.084       .  S
C916        C917   1.407       .  A
C917        C918   1.414       .  A
C918        S922   1.807       .  S
C919        C924   1.409       .  A
C919        C928   1.402       .  A
S920        H936   1.406       .  S
S922        H933   1.407       .  S
C924        C925   1.403       .  A
C924        S929   1.805       .  S
C925        H930   1.082       .  S
C925        C926   1.402       .  A
C926        C927   1.411       .  A
C927        C928   1.399       .  A
C927        S931   1.802       .  S
C928        H932   1.084       .  S
S929        H934   1.407       .  S
S931        H935   1.405       .  S
C937        H947   1.084       .  S
C937        C938   1.404       .  A
C937        C942   1.400       .  A
C938        C943   1.486       .  S
C938        C939   1.413   1_554  A
C939        C940   1.403       .  A
C939        S944   1.803       .  S
C940        H945   1.083       .  S
C940        C941   1.405       .  A
C941        C942   1.412   1_556  A
C942        S946   1.801       .  S
C943        C948   1.410       .  A
C943        C952   1.401       .  A
S944        H960   1.405       .  S
S946        H957   1.406       .  S
C948        C949   1.407       .  A
C948        S953   1.806       .  S
C949        H954   1.082       .  S
C949        C950   1.406       .  A
C950        C951   1.419       .  A
C951        C952   1.405       .  A
C951        S955   1.810   1_655  S
C952        H956   1.083       .  S
S953        H958   1.406       .  S
S955        H959   1.407       .  S
C961        H971   1.083       .  S
C961        C962   1.402       .  A
C961        C966   1.400       .  A
C962        C967   1.482       .  S
C962        C963   1.412       .  A
C963        C964   1.401       .  A
C963        S968   1.803       .  S
C964        H969   1.083       .  S
C964        C965   1.404       .  A
C965        C966   1.415       .  A
C966        S970   1.803       .  S
C967        C972   1.406       .  A
C967        C976   1.404       .  A
S968        H984   1.405       .  S
S970        H981   1.404       .  S
C972        C973   1.401       .  A
C972        S977   1.808       .  S
C973        H978   1.083       .  S
C973        C974   1.408       .  A
C974        C975   1.415       .  A
C975        C976   1.405       .  A
C975        S979   1.801       .  S
C976        H980   1.084       .  S
S977        H982   1.407       .  S
S979        H983   1.407       .  S
C985        H995   1.084       .  S
C985        C986   1.402       .  A
C985        C990   1.400       .  A
C986        C991   1.478       .  S
C986        C987   1.410       .  A
C987        C988   1.396       .  A
C987        S992   1.803       .  S
C988        H993   1.083       .  S
C988        C989   1.403       .  A
C989        C990   1.415       .  A
C990        S994   1.802       .  S
C991        C996   1.410       .  A
C991       C1000   1.400       .  A
S992       H1008   1.406       .  S
S994       H1005   1.405       .  S
C996        C997   1.405       .  A
C996       S1001   1.806       .  S
C997       H1002   1.083       .  S
C997        C998   1.404       .  A
C998        C999   1.415       .  A
C999       C1000   1.395       .  A
C999       S1003   1.803       .  S
C1000      H1004   1.084       .  S
S1001      H1006   1.407       .  S
S1003      H1007   1.407       .  S
C1009      H1019   1.084       .  S
C1009      C1010   1.400       .  A
C1009      C1014   1.398       .  A
C1010      C1015   1.483       .  S
C1010      C1011   1.413       .  A
C1011      C1012   1.402       .  A
C1011      S1016   1.803   1_556  S
C1012      H1017   1.082       .  S
C1012      C1013   1.404       .  A
C1013      C1014   1.417       .  A
C1014      S1018   1.806       .  S
C1015      C1020   1.411       .  A
C1015      C1024   1.400   1_556  A
S1016      H1032   1.406       .  S
S1018      H1029   1.399       .  S
C1020      C1021   1.408   1_556  A
C1020      S1025   1.805       .  S
C1021      H1026   1.083       .  S
C1021      C1022   1.405       .  A
C1022      C1023   1.415       .  A
C1023      C1024   1.396       .  A
C1023      S1027   1.802       .  S
C1024      H1028   1.084       .  S
S1025      H1030   1.407       .  S
S1027      H1031   1.406       .  S
C1033      H1043   1.084       .  S
C1033      C1034   1.402       .  A
C1033      C1038   1.400       .  A
C1034      C1039   1.482       .  S
C1034      C1035   1.413       .  A
C1035      C1036   1.401       .  A
C1035      S1040   1.803       .  S
C1036      H1041   1.083       .  S
C1036      C1037   1.403       .  A
C1037      C1038   1.413       .  A
C1038      S1042   1.803       .  S
C1039      C1044   1.410       .  A
C1039      C1048   1.399       .  A
S1040      H1056   1.406       .  S
S1042      H1053   1.407       .  S
C1044      C1045   1.409       .  A
C1044      S1049   1.804       .  S
C1045      H1050   1.082   1_554  S
C1045      C1046   1.406       .  A
C1046      C1047   1.415       .  A
C1047      C1048   1.395       .  A
C1047      S1051   1.804       .  S
C1048      H1052   1.084       .  S
S1049      H1054   1.407   1_554  S
S1051      H1055   1.407       .  S
C1057      H1067   1.084       .  S
C1057      C1058   1.403       .  A
C1057      C1062   1.403       .  A
C1058      C1063   1.488       .  S
C1058      C1059   1.414       .  A
C1059      C1060   1.403       .  A
C1059      S1064   1.803       .  S
C1060      H1065   1.084       .  S
C1060      C1061   1.403       .  A
C1061      C1062   1.414       .  A
C1062      S1066   1.806       .  S
C1063      C1068   1.410       .  A
C1063      C1072   1.404       .  A
S1064      H1080   1.406       .  S
S1066      H1077   1.403       .  S
C1068      C1069   1.404       .  A
C1068      S1073   1.808       .  S
C1069      H1074   1.083       .  S
C1069      C1070   1.404       .  A
C1070      C1071   1.416       .  A
C1071      C1072   1.407       .  A
C1071      S1075   1.801       .  S
C1072      H1076   1.083       .  S
S1073      H1078   1.406       .  S
S1075      H1079   1.406       .  S
C1081      H1091   1.083       .  S
C1081      C1082   1.401       .  A
C1081      C1086   1.403       .  A
C1082      C1087   1.486       .  S
C1082      C1083   1.414       .  A
C1083      C1084   1.406       .  A
C1083      S1088   1.804       .  S
C1084      H1089   1.083       .  S
C1084      C1085   1.405       .  A
C1085      C1086   1.413       .  A
C1086      S1090   1.808       .  S
C1087      C1092   1.410       .  A
C1087      C1096   1.401       .  A
S1088      H1104   1.404       .  S
S1090      H1101   1.407       .  S
C1092      C1093   1.405       .  A
C1092      S1097   1.806       .  S
C1093      H1098   1.083       .  S
C1093      C1094   1.407       .  A
C1094      C1095   1.417       .  A
C1095      C1096   1.404       .  A
C1095      S1099   1.801       .  S
C1096      H1100   1.084       .  S
S1097      H1102   1.407       .  S
S1099      H1103   1.407       .  S
C1105      H1115   1.083       .  S
C1105      C1106   1.400       .  A
C1105      C1110   1.401       .  A
C1106      C1111   1.486       .  S
C1106      C1107   1.414       .  A
C1107      C1108   1.407       .  A
C1107      S1112   1.803       .  S
C1108      H1113   1.084       .  S
C1108      C1109   1.405       .  A
C1109      C1110   1.414       .  A
C1110      S1114   1.808       .  S
C1111      C1116   1.410       .  A
C1111      C1120   1.401       .  A
S1112      H1128   1.404       .  S
S1114      H1125   1.407       .  S
C1116      C1117   1.406       .  A
C1116      S1121   1.806       .  S
C1117      H1122   1.083       .  S
C1117      C1118   1.405       .  A
C1118      C1119   1.418       .  A
C1119      C1120   1.402       .  A
C1119      S1123   1.804       .  S
C1120      H1124   1.084       .  S
S1121      H1126   1.407       .  S
S1123      H1127   1.407       .  S
C1129      H1139   1.084       .  S
C1129      C1130   1.402       .  A
C1129      C1134   1.394       .  A
C1130      C1135   1.478       .  S
C1130      C1131   1.414       .  A
C1131      C1132   1.401       .  A
C1131      S1136   1.805       .  S
C1132      H1137   1.083       .  S
C1132      C1133   1.403       .  A
C1133      C1134   1.411       .  A
C1134      S1138   1.801       .  S
C1135      C1140   1.410       .  A
C1135      C1144   1.397       .  A
S1136      H1152   1.404       .  S
S1138      H1149   1.393       .  S
C1140      C1141   1.408       .  A
C1140      S1145   1.805       .  S
C1141      H1146   1.083       .  S
C1141      C1142   1.408       .  A
C1142      C1143   1.419       .  A
C1143      C1144   1.391       .  A
C1143      S1147   1.805       .  S
C1144      H1148   1.085       .  S
S1145      H1150   1.407       .  S
S1147      H1151   1.408       .  S
C1153      H1163   1.084       .  S
C1153      C1154   1.402       .  A
C1153      C1158   1.401       .  A
C1154      C1159   1.489       .  S
C1154      C1155   1.413       .  A
C1155      C1156   1.404       .  A
C1155      S1160   1.804       .  S
C1156      H1161   1.084       .  S
C1156      C1157   1.409       .  A
C1157      C1158   1.419       .  A
C1158      S1162   1.802   1_554  S
C1159      C1164   1.411       .  A
C1159      C1168   1.405       .  A
S1160      H1176   1.406       .  S
S1162      H1173   1.408   1_556  S
C1164      C1165   1.403       .  A
C1164      S1169   1.808       .  S
C1165      H1170   1.083       .  S
C1165      C1166   1.404       .  A
C1166      C1167   1.415       .  A
C1167      C1168   1.405       .  A
C1167      S1171   1.804       .  S
C1168      H1172   1.084       .  S
S1169      H1174   1.407       .  S
S1171      H1175   1.405       .  S
C1177      H1187   1.084       .  S
C1177      C1178   1.403       .  A
C1177      C1182   1.400       .  A
C1178      C1183   1.477       .  S
C1178      C1179   1.412       .  A
C1179      C1180   1.396       .  A
C1179      S1184   1.804       .  S
C1180      H1185   1.084       .  S
C1180      C1181   1.400       .  A
C1181      C1182   1.412       .  A
C1182      S1186   1.801       .  S
C1183      C1188   1.407       .  A
C1183      C1192   1.402       .  A
S1184      H1200   1.405       .  S
S1186      H1197   1.405       .  S
C1188      C1189   1.399       .  A
C1188      S1193   1.808       .  S
C1189      H1194   1.082       .  S
C1189      C1190   1.407       .  A
C1190      C1191   1.418       .  A
C1191      C1192   1.402       .  A
C1191      S1195   1.802       .  S
C1192      H1196   1.084       .  S
S1193      H1198   1.407       .  S
S1195      H1199   1.407       .  S
C1201      H1211   1.084       .  S
C1201      C1202   1.403       .  A
C1201      C1206   1.402       .  A
C1202      C1207   1.490       .  S
C1202      C1203   1.415       .  A
C1203      C1204   1.404       .  A
C1203      S1208   1.804       .  S
C1204      H1209   1.083       .  S
C1204      C1205   1.404       .  A
C1205      C1206   1.414       .  A
C1206      S1210   1.805       .  S
C1207      C1212   1.411       .  A
C1207      C1216   1.402       .  A
S1208      H1224   1.405       .  S
S1210      H1221   1.403       .  S
C1212      C1213   1.405       .  A
C1212      S1217   1.807       .  S
C1213      H1218   1.082       .  S
C1213      C1214   1.407       .  A
C1214      C1215   1.420       .  A
C1215      C1216   1.404       .  A
C1215      S1219   1.803       .  S
C1216      H1220   1.084       .  S
S1217      H1222   1.407       .  S
S1219      H1223   1.407       .  S
C1225      H1235   1.084       .  S
C1225      C1226   1.405       .  A
C1225      C1230   1.400       .  A
C1226      C1231   1.482       .  S
C1226      C1227   1.413       .  A
C1227      C1228   1.396       .  A
C1227      S1232   1.804       .  S
C1228      H1233   1.082       .  S
C1228      C1229   1.400       .  A
C1229      C1230   1.410       .  A
C1230      S1234   1.802       .  S
C1231      C1236   1.407       .  A
C1231      C1240   1.402       .  A
S1232      H1248   1.406       .  S
S1234      H1245   1.404       .  S
C1236      C1237   1.399       .  A
C1236      S1241   1.809       .  S
C1237      H1242   1.081       .  S
C1237      C1238   1.412       .  A
C1238      C1239   1.420       .  A
C1239      C1240   1.401       .  A
C1239      S1243   1.801       .  S
C1240      H1244   1.084       .  S
S1241      H1246   1.407       .  S
S1243      H1247   1.408       .  S
C1249      H1259   1.084       .  S
C1249      C1250   1.403       .  A
C1249      C1254   1.399       .  A
C1250      C1255   1.491       .  S
C1250      C1251   1.415       .  A
C1251      C1252   1.406       .  A
C1251      S1256   1.803       .  S
C1252      H1257   1.083   1_545  S
C1252      C1253   1.405       .  A
C1253      C1254   1.416       .  A
C1254      S1258   1.804       .  S
C1255      C1260   1.414       .  A
C1255      C1264   1.402       .  A
S1256      H1272   1.406       .  S
S1258      H1269   1.406       .  S
C1260      C1261   1.407       .  A
C1260      S1265   1.806       .  S
C1261      H1266   1.082       .  S
C1261      C1262   1.404       .  A
C1262      C1263   1.414       .  A
C1263      C1264   1.399       .  A
C1263      S1267   1.803       .  S
C1264      H1268   1.084       .  S
S1265      H1270   1.407       .  S
S1267      H1271   1.407       .  S
C1273      H1283   1.084       .  S
C1273      C1274   1.400       .  A
C1273      C1278   1.398       .  A
C1274      C1279   1.481       .  S
C1274      C1275   1.413       .  A
C1275      C1276   1.402       .  A
C1275      S1280   1.804       .  S
C1276      H1281   1.084       .  S
C1276      C1277   1.405       .  A
C1277      C1278   1.418       .  A
C1278      S1282   1.804       .  S
C1279      C1284   1.409   1_455  A
C1279      C1288   1.401       .  A
S1280      H1296   1.406   1_455  S
S1282      H1293   1.407   1_565  S
C1284      C1285   1.405       .  A
C1284      S1289   1.805       .  S
C1285      H1290   1.082       .  S
C1285      C1286   1.405       .  A
C1286      C1287   1.414   1_655  A
C1287      C1288   1.398       .  A
C1287      S1291   1.801       .  S
C1288      H1292   1.084       .  S
S1289      H1294   1.407       .  S
S1291      H1295   1.402       .  S
C1297      H1307   1.084       .  S
C1297      C1298   1.404       .  A
C1297      C1302   1.402       .  A
C1298      C1303   1.483       .  S
C1298      C1299   1.413       .  A
C1299      C1300   1.398       .  A
C1299      S1304   1.803       .  S
C1300      H1305   1.084       .  S
C1300      C1301   1.402       .  A
C1301      C1302   1.412       .  A
C1302      S1306   1.801       .  S
C1303      C1308   1.410       .  A
C1303      C1312   1.401       .  A
S1304      H1320   1.406       .  S
S1306      H1317   1.406       .  S
C1308      C1309   1.407       .  A
C1308      S1313   1.806       .  S
C1309      H1314   1.083       .  S
C1309      C1310   1.406       .  A
C1310      C1311   1.416       .  A
C1311      C1312   1.401       .  A
C1311      S1315   1.810       .  S
C1312      H1316   1.083       .  S
S1313      H1318   1.407       .  S
S1315      H1319   1.407       .  S
C1321      H1331   1.084       .  S
C1321      C1322   1.403       .  A
C1321      C1326   1.398       .  A
C1322      C1327   1.488       .  S
C1322      C1323   1.416       .  A
C1323      C1324   1.407       .  A
C1323      S1328   1.805       .  S
C1324      H1329   1.084       .  S
C1324      C1325   1.405       .  A
C1325      C1326   1.411       .  A
C1326      S1330   1.802       .  S
C1327      C1332   1.412       .  A
C1327      C1336   1.402       .  A
S1328      H1344   1.405       .  S
S1330      H1341   1.405       .  S
C1332      C1333   1.408       .  A
C1332      S1337   1.806       .  S
C1333      H1338   1.081       .  S
C1333      C1334   1.405       .  A
C1334      C1335   1.413       .  A
C1335      C1336   1.400       .  A
C1335      S1339   1.803       .  S
C1336      H1340   1.084       .  S
S1337      H1342   1.407       .  S
S1339      H1343   1.407       .  S
C1345      H1355   1.083       .  S
C1345      C1346   1.405       .  A
C1345      C1350   1.401       .  A
C1346      C1351   1.487       .  S
C1346      C1347   1.415       .  A
C1347      C1348   1.401       .  A
C1347      S1352   1.804       .  S
C1348      H1353   1.083       .  S
C1348      C1349   1.402       .  A
C1349      C1350   1.411       .  A
C1350      S1354   1.798       .  S
C1351      C1356   1.410       .  A
C1351      C1360   1.404       .  A
S1352      H1368   1.406       .  S
S1354      H1365   1.405       .  S
C1356      C1357   1.401       .  A
C1356      S1361   1.809       .  S
C1357      H1362   1.083       .  S
C1357      C1358   1.408       .  A
C1358      C1359   1.416       .  A
C1359      C1360   1.404       .  A
C1359      S1363   1.802       .  S
C1360      H1364   1.083       .  S
S1361      H1366   1.407       .  S
S1363      H1367   1.407       .  S
C1369      H1379   1.083       .  S
C1369      C1370   1.406       .  A
C1369      C1374   1.404   1_655  A
C1370      C1375   1.489       .  S
C1370      C1371   1.415   1_655  A
C1371      C1372   1.398       .  A
C1371      S1376   1.805       .  S
C1372      H1377   1.084       .  S
C1372      C1373   1.404       .  A
C1373      C1374   1.414       .  A
C1374      S1378   1.803       .  S
C1375      C1380   1.411       .  A
C1375      C1384   1.407       .  A
S1376      H1392   1.406   1_455  S
S1378      H1389   1.407       .  S
C1380      C1381   1.400       .  A
C1380      S1385   1.809       .  S
C1381      H1386   1.083       .  S
C1381      C1382   1.404       .  A
C1382      C1383   1.414       .  A
C1383      C1384   1.405       .  A
C1383      S1387   1.803       .  S
C1384      H1388   1.084   1_655  S
S1385      H1390   1.406       .  S
S1387      H1391   1.405       .  S
C1393      H1403   1.084       .  S
C1393      C1394   1.401       .  A
C1393      C1398   1.399       .  A
C1394      C1399   1.499       .  S
C1394      C1395   1.418       .  A
C1395      C1396   1.411       .  A
C1395      S1400   1.802       .  S
C1396      H1401   1.083       .  S
C1396      C1397   1.406       .  A
C1397      C1398   1.420       .  A
C1398      S1402   1.806       .  S
C1399      C1404   1.414       .  A
C1399      C1408   1.404       .  A
S1400      H1416   1.407       .  S
S1402      H1413   1.404       .  S
C1404      C1405   1.411       .  A
C1404      S1409   1.806   1_455  S
C1405      H1410   1.082   1_455  S
C1405      C1406   1.407       .  A
C1406      C1407   1.418       .  A
C1407      C1408   1.404       .  A
C1407      S1411   1.803       .  S
C1408      H1412   1.084       .  S
S1409      H1414   1.407       .  S
S1411      H1415   1.407       .  S
C1417      H1427   1.084       .  S
C1417      C1418   1.403       .  A
C1417      C1422   1.402       .  A
C1418      C1423   1.484       .  S
C1418      C1419   1.411       .  A
C1419      C1420   1.403       .  A
C1419      S1424   1.805       .  S
C1420      H1425   1.084       .  S
C1420      C1421   1.409       .  A
C1421      C1422   1.417       .  A
C1422      S1426   1.802       .  S
C1423      C1428   1.407       .  A
C1423      C1432   1.405       .  A
S1424      H1440   1.405       .  S
S1426      H1437   1.408       .  S
C1428      C1429   1.400       .  A
C1428      S1433   1.807       .  S
C1429      H1434   1.083       .  S
C1429      C1430   1.404       .  A
C1430      C1431   1.415       .  A
C1431      C1432   1.407       .  A
C1431      S1435   1.806       .  S
C1432      H1436   1.083       .  S
S1433      H1438   1.407       .  S
S1435      H1439   1.402       .  S
C1441      H1451   1.084       .  S
C1441      C1442   1.406       .  A
C1441      C1446   1.406       .  A
C1442      C1447   1.488       .  S
C1442      C1443   1.411       .  A
C1443      C1444   1.400       .  A
C1443      S1448   1.803       .  S
C1444      H1449   1.085       .  S
C1444      C1445   1.404       .  A
C1445      C1446   1.415       .  A
C1446      S1450   1.804       .  S
C1447      C1452   1.409       .  A
C1447      C1456   1.405       .  A
S1448      H1464   1.404       .  S
S1450      H1461   1.405       .  S
C1452      C1453   1.402       .  A
C1452      S1457   1.808       .  S
C1453      H1458   1.082       .  S
C1453      C1454   1.408       .  A
C1454      C1455   1.417       .  A
C1455      C1456   1.408       .  A
C1455      S1459   1.801       .  S
C1456      H1460   1.083       .  S
S1457      H1462   1.407       .  S
S1459      H1463   1.407       .  S
C1465      H1475   1.083       .  S
C1465      C1466   1.403       .  A
C1465      C1470   1.404       .  A
C1466      C1471   1.483       .  S
C1466      C1467   1.410       .  A
C1467      C1468   1.398       .  A
C1467      S1472   1.804       .  S
C1468      H1473   1.084       .  S
C1468      C1469   1.407       .  A
C1469      C1470   1.418       .  A
C1470      S1474   1.810   1_655  S
C1471      C1476   1.408       .  A
C1471      C1480   1.404       .  A
S1472      H1488   1.406       .  S
S1474      H1485   1.407       .  S
C1476      C1477   1.400       .  A
C1476      S1481   1.807       .  S
C1477      H1482   1.079       .  S
C1477      C1478   1.404       .  A
C1478      C1479   1.414       .  A
C1479      C1480   1.401       .  A
C1479      S1483   1.801       .  S
C1480      H1484   1.084       .  S
S1481      H1486   1.407       .  S
S1483      H1487   1.406       .  S
C1489      H1499   1.083       .  S
C1489      C1490   1.404       .  A
C1489      C1494   1.406       .  A
C1490      C1495   1.486       .  S
C1490      C1491   1.412       .  A
C1491      C1492   1.398       .  A
C1491      S1496   1.805       .  S
C1492      H1497   1.084       .  S
C1492      C1493   1.406       .  A
C1493      C1494   1.417       .  A
C1494      S1498   1.801   1_455  S
C1495      C1500   1.408       .  A
C1495      C1504   1.404       .  A
S1496      H1512   1.406       .  S
S1498      H1509   1.407       .  S
C1500      C1501   1.404       .  A
C1500      S1505   1.806       .  S
C1501      H1506   1.083       .  S
C1501      C1502   1.406       .  A
C1502      C1503   1.415       .  A
C1503      C1504   1.403       .  A
C1503      S1507   1.803       .  S
C1504      H1508   1.084       .  S
S1505      H1510   1.407       .  S
S1507      H1511   1.405       .  S
C1513      H1523   1.084       .  S
C1513      C1514   1.402       .  A
C1513      C1518   1.400       .  A
C1514      C1519   1.491       .  S
C1514      C1515   1.414       .  A
C1515      C1516   1.405       .  A
C1515      S1520   1.804       .  S
C1516      H1521   1.083       .  S
C1516      C1517   1.409       .  A
C1517      C1518   1.420       .  A
C1518      S1522   1.804       .  S
C1519      C1524   1.412       .  A
C1519      C1528   1.406       .  A
S1520      H1536   1.406       .  S
S1522      H1533   1.408       .  S
C1524      C1525   1.404       .  A
C1524      S1529   1.807       .  S
C1525      H1530   1.082       .  S
C1525      C1526   1.403       .  A
C1526      C1527   1.411       .  A
C1527      C1528   1.403       .  A
C1527      S1531   1.799       .  S
C1528      H1532   1.084       .  S
S1529      H1534   1.407       .  S
S1531      H1535   1.406       .  S
C1537      H1547   1.084       .  S
C1537      C1538   1.404       .  A
C1537      C1542   1.404       .  A
C1538      C1543   1.488       .  S
C1538      C1539   1.412       .  A
C1539      C1540   1.401       .  A
C1539      S1544   1.805       .  S
C1540      H1545   1.084       .  S
C1540      C1541   1.409       .  A
C1541      C1542   1.417       .  A
C1542      S1546   1.799       .  S
C1543      C1548   1.410       .  A
C1543      C1552   1.405       .  A
S1544      H1560   1.406       .  S
S1546      H1557   1.407       .  S
C1548      C1549   1.401       .  A
C1548      S1553   1.808       .  S
C1549      H1554   1.083       .  S
C1549      C1550   1.405       .  A
C1550      C1551   1.416       .  A
C1551      C1552   1.406       .  A
C1551      S1555   1.802       .  S
C1552      H1556   1.084       .  S
S1553      H1558   1.407       .  S
S1555      H1559   1.405       .  S
C1561      H1571   1.083       .  S
C1561      C1562   1.406       .  A
C1561      C1566   1.404       .  A
C1562      C1567   1.491       .  S
C1562      C1563   1.413       .  A
C1563      C1564   1.401       .  A
C1563      S1568   1.805       .  S
C1564      H1569   1.084       .  S
C1564      C1565   1.408       .  A
C1565      C1566   1.415       .  A
C1566      S1570   1.802       .  S
C1567      C1572   1.412       .  A
C1567      C1576   1.407       .  A
S1568      H1584   1.406       .  S
S1570      H1581   1.407       .  S
C1572      C1573   1.402       .  A
C1572      S1577   1.807       .  S
C1573      H1578   1.081       .  S
C1573      C1574   1.402       .  A
C1574      C1575   1.413       .  A
C1575      C1576   1.405       .  A
C1575      S1579   1.801       .  S
C1576      H1580   1.084       .  S
S1577      H1582   1.407       .  S
S1579      H1583   1.406       .  S
C1585      H1595   1.083       .  S
C1585      C1586   1.405       .  A
C1585      C1590   1.407       .  A
C1586      C1591   1.489       .  S
C1586      C1587   1.413       .  A
C1587      C1588   1.397   1_545  A
C1587      S1592   1.806   1_545  S
C1588      H1593   1.084       .  S
C1588      C1589   1.406   1_565  A
C1589      C1590   1.416       .  A
C1590      S1594   1.797       .  S
C1591      C1596   1.410       .  A
C1591      C1600   1.403       .  A
S1592      H1608   1.406   1_565  S
S1594      H1605   1.405       .  S
C1596      C1597   1.405       .  A
C1596      S1601   1.807       .  S
C1597      H1602   1.083       .  S
C1597      C1598   1.408       .  A
C1598      C1599   1.417       .  A
C1599      C1600   1.403       .  A
C1599      S1603   1.802       .  S
C1600      H1604   1.084       .  S
S1601      H1606   1.407       .  S
S1603      H1607   1.407       .  S
C1609      H1619   1.084       .  S
C1609      C1610   1.402       .  A
C1609      C1614   1.399       .  A
C1610      C1615   1.492       .  S
C1610      C1611   1.415       .  A
C1611      C1612   1.408       .  A
C1611      S1616   1.803       .  S
C1612      H1617   1.084       .  S
C1612      C1613   1.406       .  A
C1613      C1614   1.417       .  A
C1614      S1618   1.803       .  S
C1615      C1620   1.413       .  A
C1615      C1624   1.403       .  A
S1616      H1632   1.406       .  S
S1618      H1629   1.406       .  S
C1620      C1621   1.407   1_455  A
C1620      S1625   1.806       .  S
C1621      H1626   1.081       .  S
C1621      C1622   1.404       .  A
C1622      C1623   1.414   1_655  A
C1623      C1624   1.401       .  A
C1623      S1627   1.803       .  S
C1624      H1628   1.083       .  S
S1625      H1630   1.407   1_455  S
S1627      H1631   1.407       .  S
C1633      H1643   1.084       .  S
C1633      C1634   1.404       .  A
C1633      C1638   1.405       .  A
C1634      C1639   1.497       .  S
C1634      C1635   1.413       .  A
C1635      C1636   1.405       .  A
C1635      S1640   1.804       .  S
C1636      H1641   1.083       .  S
C1636      C1637   1.412       .  A
C1637      C1638   1.422       .  A
C1638      S1642   1.798       .  S
C1639      C1644   1.416       .  A
C1639      C1648   1.403       .  A
S1640      H1656   1.407       .  S
S1642      H1653   1.407       .  S
C1644      C1645   1.413       .  A
C1644      S1649   1.805       .  S
C1645      H1650   1.083       .  S
C1645      C1646   1.405       .  A
C1646      C1647   1.414       .  A
C1647      C1648   1.399       .  A
C1647      S1651   1.804       .  S
C1648      H1652   1.084       .  S
S1649      H1654   1.407       .  S
S1651      H1655   1.407       .  S
C1657      H1667   1.084       .  S
C1657      C1658   1.406       .  A
C1657      C1662   1.405       .  A
C1658      C1663   1.496       .  S
C1658      C1659   1.414       .  A
C1659      C1660   1.403       .  A
C1659      S1664   1.803       .  S
C1660      H1665   1.084       .  S
C1660      C1661   1.406       .  A
C1661      C1662   1.417       .  A
C1662      S1666   1.802   1_554  S
C1663      C1668   1.414       .  A
C1663      C1672   1.406       .  A
S1664      H1680   1.406       .  S
S1666      H1677   1.405       .  S
C1668      C1669   1.405       .  A
C1668      S1673   1.808       .  S
C1669      H1674   1.083       .  S
C1669      C1670   1.405       .  A
C1670      C1671   1.414       .  A
C1671      C1672   1.407       .  A
C1671      S1675   1.802       .  S
C1672      H1676   1.083       .  S
S1673      H1678   1.407       .  S
S1675      H1679   1.407       .  S
C1681      H1691   1.083       .  S
C1681      C1682   1.405       .  A
C1681      C1686   1.402       .  A
C1682      C1687   1.496       .  S
C1682      C1683   1.417       .  A
C1683      C1684   1.404       .  A
C1683      S1688   1.803   1_556  S
C1684      H1689   1.083   1_545  S
C1684      C1685   1.403       .  A
C1685      C1686   1.414       .  A
C1686      S1690   1.803       .  S
C1687      C1692   1.415       .  A
C1687      C1696   1.403   1_556  A
S1688      H1704   1.406       .  S
S1690      H1701   1.407       .  S
C1692      C1693   1.412   1_556  A
C1692      S1697   1.806       .  S
C1693      H1698   1.083       .  S
C1693      C1694   1.407       .  A
C1694      C1695   1.415       .  A
C1695      C1696   1.399       .  A
C1695      S1699   1.802       .  S
C1696      H1700   1.084       .  S
S1697      H1702   1.407       .  S
S1699      H1703   1.405       .  S
C1705      H1715   1.085       .  S
C1705      C1706   1.399       .  A
C1705      C1710   1.397       .  A
C1706      C1711   1.482       .  S
C1706      C1707   1.414       .  A
C1707      C1708   1.406       .  A
C1707      S1712   1.804   1_545  S
C1708      H1713   1.084       .  S
C1708      C1709   1.405       .  A
C1709      C1710   1.417       .  A
C1710      S1714   1.804       .  S
C1711      C1716   1.409   1_545  A
C1711      C1720   1.400       .  A
S1712      H1728   1.405       .  S
S1714      H1725   1.407       .  S
C1716      C1717   1.405       .  A
C1716      S1721   1.805       .  S
C1717      H1722   1.083       .  S
C1717      C1718   1.404       .  A
C1718      C1719   1.417   1_565  A
C1719      C1720   1.399       .  A
C1719      S1723   1.801       .  S
C1720      H1724   1.084       .  S
S1721      H1726   1.407       .  S
S1723      H1727   1.401       .  S
C1729      H1739   1.084       .  S
C1729      C1730   1.406       .  A
C1729      C1734   1.405       .  A
C1730      C1735   1.490       .  S
C1730      C1731   1.412       .  A
C1731      C1732   1.399       .  A
C1731      S1736   1.804       .  S
C1732      H1737   1.084       .  S
C1732      C1733   1.406       .  A
C1733      C1734   1.415       .  A
C1734      S1738   1.802   1_554  S
C1735      C1740   1.413   1_655  A
C1735      C1744   1.406       .  A
S1736      H1752   1.406       .  S
S1738      H1749   1.405       .  S
C1740      C1741   1.402       .  A
C1740      S1745   1.808   1_455  S
C1741      H1746   1.083       .  S
C1741      C1742   1.403       .  A
C1742      C1743   1.413       .  A
C1743      C1744   1.405   1_455  A
C1743      S1747   1.802       .  S
C1744      H1748   1.084       .  S
S1745      H1750   1.407   1_655  S
S1747      H1751   1.406       .  S
C1753      H1763   1.084       .  S
C1753      C1754   1.404       .  A
C1753      C1758   1.400       .  A
C1754      C1759   1.482       .  S
C1754      C1755   1.413   1_554  A
C1755      C1756   1.400       .  A
C1755      S1760   1.804       .  S
C1756      H1761   1.083       .  S
C1756      C1757   1.401       .  A
C1757      C1758   1.410   1_556  A
C1758      S1762   1.802       .  S
C1759      C1764   1.409       .  A
C1759      C1768   1.401       .  A
S1760      H1776   1.405       .  S
S1762      H1773   1.406       .  S
C1764      C1765   1.405       .  A
C1764      S1769   1.806       .  S
C1765      H1770   1.082       .  S
C1765      C1766   1.406       .  A
C1766      C1767   1.419       .  A
C1767      C1768   1.400       .  A
C1767      S1771   1.805       .  S
C1768      H1772   1.084       .  S
S1769      H1774   1.407       .  S
S1771      H1775   1.408       .  S
C1777      H1787   1.084       .  S
C1777      C1778   1.402   1_545  A
C1777      C1782   1.399       .  A
C1778      C1783   1.491       .  S
C1778      C1779   1.415       .  A
C1779      C1780   1.406   1_565  A
C1779      S1784   1.803       .  S
C1780      H1785   1.083       .  S
C1780      C1781   1.405       .  A
C1781      C1782   1.417       .  A
C1782      S1786   1.803       .  S
C1783      C1788   1.413       .  A
C1783      C1792   1.401       .  A
S1784      H1800   1.406       .  S
S1786      H1797   1.406       .  S
C1788      C1789   1.408       .  A
C1788      S1793   1.806       .  S
C1789      H1794   1.082   1_455  S
C1789      C1790   1.405       .  A
C1790      C1791   1.418       .  A
C1791      C1792   1.398       .  A
C1791      S1795   1.806       .  S
C1792      H1796   1.084       .  S
S1793      H1798   1.407       .  S
S1795      H1799   1.402       .  S
C1801      H1811   1.084       .  S
C1801      C1802   1.404       .  A
C1801      C1806   1.403       .  A
C1802      C1807   1.483   1_655  S
C1802      C1803   1.413   1_655  A
C1803      C1804   1.398   1_455  A
C1803      S1808   1.804       .  S
C1804      H1809   1.083   1_655  S
C1804      C1805   1.401       .  A
C1805      C1806   1.412       .  A
C1806      S1810   1.800       .  S
C1807      C1812   1.405       .  A
C1807      C1816   1.401       .  A
S1808      H1824   1.404       .  S
S1810      H1821   1.405       .  S
C1812      C1813   1.402       .  A
C1812      S1817   1.809       .  S
C1813      H1818   1.082       .  S
C1813      C1814   1.414       .  A
C1814      C1815   1.422       .  A
C1815      C1816   1.405       .  A
C1815      S1819   1.799       .  S
C1816      H1820   1.084   1_455  S
S1817      H1822   1.407       .  S
S1819      H1823   1.407       .  S
C1825      H1835   1.084       .  S
C1825      C1826   1.401       .  A
C1825      C1830   1.402       .  A
C1826      C1831   1.487       .  S
C1826      C1827   1.409       .  A
C1827      C1828   1.402       .  A
C1827      S1832   1.804       .  S
C1828      H1833   1.083       .  S
C1828      C1829   1.414       .  A
C1829      C1830   1.423       .  A
C1830      S1834   1.797       .  S
C1831      C1836   1.412       .  A
C1831      C1840   1.402       .  A
S1832      H1848   1.406       .  S
S1834      H1845   1.406       .  S
C1836      C1837   1.407       .  A
C1836      S1841   1.805       .  S
C1837      H1842   1.082       .  S
C1837      C1838   1.403       .  A
C1838      C1839   1.413       .  A
C1839      C1840   1.400       .  A
C1839      S1843   1.804       .  S
C1840      H1844   1.083       .  S
S1841      H1846   1.407       .  S
S1843      H1847   1.407       .  S
C1849      H1859   1.083       .  S
C1849      C1850   1.402       .  A
C1849      C1854   1.406       .  A
C1850      C1855   1.490       .  S
C1850      C1851   1.412       .  A
C1851      C1852   1.403       .  A
C1851      S1856   1.803       .  S
C1852      H1857   1.083       .  S
C1852      C1853   1.407       .  A
C1853      C1854   1.420       .  A
C1854      S1858   1.809       .  S
C1855      C1860   1.412       .  A
C1855      C1864   1.402       .  A
S1856      H1872   1.407       .  S
S1858      H1869   1.407       .  S
C1860      C1861   1.408       .  A
C1860      S1865   1.805       .  S
C1861      H1866   1.082       .  S
C1861      C1862   1.405       .  A
C1862      C1863   1.413       .  A
C1863      C1864   1.403       .  A
C1863      S1867   1.808       .  S
C1864      H1868   1.083       .  S
S1865      H1870   1.407       .  S
S1867      H1871   1.407       .  S
C1873      H1883   1.084       .  S
C1873      C1874   1.402       .  A
C1873      C1878   1.404       .  A
C1874      C1879   1.491       .  S
C1874      C1875   1.415       .  A
C1875      C1876   1.404       .  A
C1875      S1880   1.804       .  S
C1876      H1881   1.084       .  S
C1876      C1877   1.404       .  A
C1877      C1878   1.416       .  A
C1878      S1882   1.802       .  S
C1879      C1884   1.412       .  A
C1879      C1888   1.400       .  A
S1880      H1896   1.405       .  S
S1882      H1893   1.406       .  S
C1884      C1885   1.411       .  A
C1884      S1889   1.804       .  S
C1885      H1890   1.081       .  S
C1885      C1886   1.406       .  A
C1886      C1887   1.417       .  A
C1887      C1888   1.400       .  A
C1887      S1891   1.804       .  S
C1888      H1892   1.084       .  S
S1889      H1894   1.407       .  S
S1891      H1895   1.403       .  S
C1897      H1907   1.084       .  S
C1897      C1898   1.401       .  A
C1897      C1902   1.405       .  A
C1898      C1903   1.489       .  S
C1898      C1899   1.411       .  A
C1899      C1900   1.402       .  A
C1899      S1904   1.806       .  S
C1900      H1905   1.083       .  S
C1900      C1901   1.412       .  A
C1901      C1902   1.425       .  A
C1902      S1906   1.800       .  S
C1903      C1908   1.409       .  A
C1903      C1912   1.404       .  A
S1904      H1920   1.404       .  S
S1906      H1917   1.407       .  S
C1908      C1909   1.403       .  A
C1908      S1913   1.807       .  S
C1909      H1914   1.084       .  S
C1909      C1910   1.406       .  A
C1910      C1911   1.416       .  A
C1911      C1912   1.407       .  A
C1911      S1915   1.797       .  S
C1912      H1916   1.084       .  S
S1913      H1918   1.407       .  S
S1915      H1919   1.406       .  S
C1921      H1931   1.084       .  S
C1921      C1922   1.407       .  A
C1921      C1926   1.407       .  A
C1922      C1927   1.493       .  S
C1922      C1923   1.412       .  A
C1923      C1924   1.398       .  A
C1923      S1928   1.805       .  S
C1924      H1929   1.081       .  S
C1924      C1925   1.408       .  A
C1925      C1926   1.418       .  A
C1926      S1930   1.801       .  S
C1927      C1932   1.415       .  A
C1927      C1936   1.403       .  A
S1928      H1944   1.407       .  S
S1930      H1941   1.407       .  S
C1932      C1933   1.411       .  A
C1932      S1937   1.805       .  S
C1933      H1938   1.083       .  S
C1933      C1934   1.404       .  A
C1934      C1935   1.413       .  A
C1935      C1936   1.397       .  A
C1935      S1939   1.804       .  S
C1936      H1940   1.084       .  S
S1937      H1942   1.407       .  S
S1939      H1943   1.407       .  S
C1945      H1955   1.084       .  S
C1945      C1946   1.401       .  A
C1945      C1950   1.399       .  A
C1946      C1951   1.487       .  S
C1946      C1947   1.412       .  A
C1947      C1948   1.407       .  A
C1947      S1952   1.803       .  S
C1948      H1953   1.084       .  S
C1948      C1949   1.408       .  A
C1949      C1950   1.418       .  A
C1950      S1954   1.803       .  S
C1951      C1956   1.409       .  A
C1951      C1960   1.402       .  A
S1952      H1968   1.406       .  S
S1954      H1965   1.407       .  S
C1956      C1957   1.405       .  A
C1956      S1961   1.806       .  S
C1957      H1962   1.083       .  S
C1957      C1958   1.405       .  A
C1958      C1959   1.412       .  A
C1959      C1960   1.406       .  A
C1959      S1963   1.802       .  S
C1960      H1964   1.083       .  S
S1961      H1966   1.407       .  S
S1963      H1967   1.407       .  S
C1969      H1979   1.084       .  S
C1969      C1970   1.406       .  A
C1969      C1974   1.404       .  A
C1970      C1975   1.488       .  S
C1970      C1971   1.414       .  A
C1971      C1972   1.397       .  A
C1971      S1976   1.804       .  S
C1972      H1977   1.084       .  S
C1972      C1973   1.402       .  A
C1973      C1974   1.413       .  A
C1974      S1978   1.804       .  S
C1975      C1980   1.412       .  A
C1975      C1984   1.402       .  A
S1976      H1992   1.406       .  S
S1978      H1989   1.404       .  S
C1980      C1981   1.404       .  A
C1980      S1985   1.808       .  S
C1981      H1986   1.082       .  S
C1981      C1982   1.407       .  A
C1982      C1983   1.420       .  A
C1983      C1984   1.401       .  A
C1983      S1987   1.801       .  S
C1984      H1988   1.084       .  S
S1985      H1990   1.407       .  S
S1987      H1991   1.407       .  S
C1993      H2003   1.084       .  S
C1993      C1994   1.403       .  A
C1993      C1998   1.403       .  A
C1994      C1999   1.489       .  S
C1994      C1995   1.412       .  A
C1995      C1996   1.404       .  A
C1995      S2000   1.805       .  S
C1996      H2001   1.083       .  S
C1996      C1997   1.411       .  A
C1997      C1998   1.420       .  A
C1998      S2002   1.802       .  S
C1999      C2004   1.412       .  A
C1999      C2008   1.400       .  A
S2000      H2016   1.405       .  S
S2002      H2013   1.407       .  S
C2004      C2005   1.410       .  A
C2004      S2009   1.804       .  S
C2005      H2010   1.082       .  S
C2005      C2006   1.406       .  A
C2006      C2007   1.418       .  A
C2007      C2008   1.399       .  A
C2007      S2011   1.806       .  S
C2008      H2012   1.084       .  S
S2009      H2014   1.407       .  S
S2011      H2015   1.403       .  S
C2017      H2027   1.084       .  S
C2017      C2018   1.404       .  A
C2017      C2022   1.400       .  A
C2018      C2023   1.488       .  S
C2018      C2019   1.415       .  A
C2019      C2020   1.403       .  A
C2019      S2024   1.804       .  S
C2020      H2025   1.084       .  S
C2020      C2021   1.402       .  A
C2021      C2022   1.413       .  A
C2022      S2026   1.804       .  S
C2023      C2028   1.411       .  A
C2023      C2032   1.403       .  A
S2024      H2040   1.406       .  S
S2026      H2037   1.406       .  S
C2028      C2029   1.402       .  A
C2028      S2033   1.809       .  S
C2029      H2034   1.079       .  S
C2029      C2030   1.407       .  A
C2030      C2031   1.419       .  A
C2031      C2032   1.405       .  A
C2031      S2035   1.801       .  S
C2032      H2036   1.083       .  S
S2033      H2038   1.407       .  S
S2035      H2039   1.407       .  S
C2041      H2051   1.083       .  S
C2041      C2042   1.403       .  A
C2041      C2046   1.406       .  A
C2042      C2047   1.488       .  S
C2042      C2043   1.413       .  A
C2043      C2044   1.401       .  A
C2043      S2048   1.804       .  S
C2044      H2049   1.084       .  S
C2044      C2045   1.404       .  A
C2045      C2046   1.417       .  A
C2046      S2050   1.801       .  S
C2047      C2052   1.412       .  A
C2047      C2056   1.401       .  A
S2048      H2064   1.406       .  S
S2050      H2061   1.406       .  S
C2052      C2053   1.410       .  A
C2052      S2057   1.804       .  S
C2053      H2058   1.082       .  S
C2053      C2054   1.406       .  A
C2054      C2055   1.413       .  A
C2055      C2056   1.398       .  A
C2055      S2059   1.803       .  S
C2056      H2060   1.084       .  S
S2057      H2062   1.407       .  S
S2059      H2063   1.407       .  S
C2065      H2075   1.082       .  S
C2065      C2066   1.405       .  A
C2065      C2070   1.408       .  A
C2066      C2071   1.491       .  S
C2066      C2067   1.412       .  A
C2067      C2068   1.400       .  A
C2067      S2072   1.804       .  S
C2068      H2073   1.083       .  S
C2068      C2069   1.409       .  A
C2069      C2070   1.416       .  A
C2070      S2074   1.805       .  S
C2071      C2076   1.413       .  A
C2071      C2080   1.401       .  A
S2072      H2088   1.406       .  S
S2074      H2085   1.406       .  S
C2076      C2077   1.410       .  A
C2076      S2081   1.805       .  S
C2077      H2082   1.082       .  S
C2077      C2078   1.405       .  A
C2078      C2079   1.418       .  A
C2079      C2080   1.397       .  A
C2079      S2083   1.807       .  S
C2080      H2084   1.084       .  S
S2081      H2086   1.407       .  S
S2083      H2087   1.402       .  S
C2089      H2099   1.083       .  S
C2089      C2090   1.404       .  A
C2089      C2094   1.403       .  A
C2090      C2095   1.484       .  S
C2090      C2091   1.413       .  A
C2091      C2092   1.400       .  A
C2091      S2096   1.804       .  S
C2092      H2097   1.084       .  S
C2092      C2093   1.403       .  A
C2093      C2094   1.410       .  A
C2094      S2098   1.795       .  S
C2095      C2100   1.407       .  A
C2095      C2104   1.403       .  A
S2096      H2112   1.404       .  S
S2098      H2109   1.404       .  S
C2100      C2101   1.401       .  A
C2100      S2105   1.808       .  S
C2101      H2106   1.082       .  S
C2101      C2102   1.409       .  A
C2102      C2103   1.420       .  A
C2103      C2104   1.407       .  A
C2103      S2107   1.801       .  S
C2104      H2108   1.084       .  S
S2105      H2110   1.407       .  S
S2107      H2111   1.407       .  S
C2113      H2123   1.082       .  S
C2113      C2114   1.406       .  A
C2113      C2118   1.409       .  A
C2114      C2119   1.491       .  S
C2114      C2115   1.412       .  A
C2115      C2116   1.399       .  A
C2115      S2120   1.804       .  S
C2116      H2121   1.084       .  S
C2116      C2117   1.405       .  A
C2117      C2118   1.413       .  A
C2118      S2122   1.802       .  S
C2119      C2124   1.410       .  A
C2119      C2128   1.404       .  A
S2120      H2136   1.406       .  S
S2122      H2133   1.407       .  S
C2124      C2125   1.407       .  A
C2124      S2129   1.806       .  S
C2125      H2130   1.083       .  S
C2125      C2126   1.407       .  A
C2126      C2127   1.416       .  A
C2127      C2128   1.405       .  A
C2127      S2131   1.809       .  S
C2128      H2132   1.083       .  S
S2129      H2134   1.407       .  S
S2131      H2135   1.407       .  S
C2137      H2147   1.082       .  S
C2137      C2138   1.400       .  A
C2137      C2142   1.407       .  A
C2138      C2143   1.484       .  S
C2138      C2139   1.412       .  A
C2139      C2140   1.399       .  A
C2139      S2144   1.805       .  S
C2140      H2145   1.083       .  S
C2140      C2141   1.407       .  A
C2141      C2142   1.422       .  A
C2142      S2146   1.809       .  S
C2143      C2148   1.409       .  A
C2143      C2152   1.403       .  A
S2144      H2160   1.406       .  S
S2146      H2157   1.406       .  S
C2148      C2149   1.402       .  A
C2148      S2153   1.807       .  S
C2149      H2154   1.083       .  S
C2149      C2150   1.404       .  A
C2150      C2151   1.411       .  A
C2151      C2152   1.407       .  A
C2151      S2155   1.802       .  S
C2152      H2156   1.083       .  S
S2153      H2158   1.407       .  S
S2155      H2159   1.407       .  S
C2161      H2171   1.084       .  S
C2161      C2162   1.404       .  A
C2161      C2166   1.399       .  A
C2162      C2167   1.483       .  S
C2162      C2163   1.413       .  A
C2163      C2164   1.400       .  A
C2163      S2168   1.804       .  S
C2164      H2169   1.082       .  S
C2164      C2165   1.402       .  A
C2165      C2166   1.412       .  A
C2166      S2170   1.804       .  S
C2167      C2172   1.410       .  A
C2167      C2176   1.403       .  A
S2168      H2184   1.406       .  S
S2170      H2181   1.406       .  S
C2172      C2173   1.401       .  A
C2172      S2177   1.808       .  S
C2173      H2178   1.082       .  S
C2173      C2174   1.404       .  A
C2174      C2175   1.415       .  A
C2175      C2176   1.403       .  A
C2175      S2179   1.802       .  S
C2176      H2180   1.084       .  S
S2177      H2182   1.406       .  S
S2179      H2183   1.407       .  S
C2185      H2195   1.084       .  S
C2185      C2186   1.405       .  A
C2185      C2190   1.406       .  A
C2186      C2191   1.489       .  S
C2186      C2187   1.413       .  A
C2187      C2188   1.398       .  A
C2187      S2192   1.805       .  S
C2188      H2193   1.084       .  S
C2188      C2189   1.405       .  A
C2189      C2190   1.415       .  A
C2190      S2194   1.799       .  S
C2191      C2196   1.411       .  A
C2191      C2200   1.401       .  A
S2192      H2208   1.406       .  S
S2194      H2205   1.406       .  S
C2196      C2197   1.408       .  A
C2196      S2201   1.804       .  S
C2197      H2202   1.082       .  S
C2197      C2198   1.406       .  A
C2198      C2199   1.418       .  A
C2199      C2200   1.398       .  A
C2199      S2203   1.806       .  S
C2200      H2204   1.084       .  S
S2201      H2206   1.407       .  S
S2203      H2207   1.402       .  S
C2209      H2219   1.084       .  S
C2209      C2210   1.404       .  A
C2209      C2214   1.405       .  A
C2210      C2215   1.493       .  S
C2210      C2211   1.412       .  A
C2211      C2212   1.401       .  A
C2211      S2216   1.804       .  S
C2212      H2217   1.084       .  S
C2212      C2213   1.410       .  A
C2213      C2214   1.419       .  A
C2214      S2218   1.798       .  S
C2215      C2220   1.413       .  A
C2215      C2224   1.403       .  A
S2216      H2232   1.407       .  S
S2218      H2229   1.407       .  S
C2220      C2221   1.410       .  A
C2220      S2225   1.805       .  S
C2221      H2226   1.082       .  S
C2221      C2222   1.405       .  A
C2222      C2223   1.414       .  A
C2223      C2224   1.398       .  A
C2223      S2227   1.804       .  S
C2224      H2228   1.084       .  S
S2225      H2230   1.407       .  S
S2227      H2231   1.407       .  S
C2233      H2243   1.083       .  S
C2233      C2234   1.402       .  A
C2233      C2238   1.405       .  A
C2234      C2239   1.484       .  S
C2234      C2235   1.413       .  A
C2235      C2236   1.402       .  A
C2235      S2240   1.804       .  S
C2236      H2241   1.084       .  S
C2236      C2237   1.403       .  A
C2237      C2238   1.410       .  A
C2238      S2242   1.804       .  S
C2239      C2244   1.410       .  A
C2239      C2248   1.402       .  A
S2240      H2256   1.405       .  S
S2242      H2253   1.406       .  S
C2244      C2245   1.403       .  A
C2244      S2249   1.807       .  S
C2245      H2250   1.083       .  S
C2245      C2246   1.404       .  A
C2246      C2247   1.415       .  A
C2247      C2248   1.408       .  A
C2247      S2251   1.807       .  S
C2248      H2252   1.083       .  S
S2249      H2254   1.407       .  S
S2251      H2255   1.407       .  S
C2257      H2267   1.083       .  S
C2257      C2258   1.402       .  A
C2257      C2262   1.407       .  A
C2258      C2263   1.483       .  S
C2258      C2259   1.407       .  A
C2259      C2260   1.400       .  A
C2259      S2264   1.804       .  S
C2260      H2265   1.083       .  S
C2260      C2261   1.411       .  A
C2261      C2262   1.421       .  A
C2262      S2266   1.808       .  S
C2263      C2268   1.410       .  A
C2263      C2272   1.401       .  A
S2264      H2280   1.405       .  S
S2266      H2277   1.407       .  S
C2268      C2269   1.407       .  A
C2268      S2273   1.805       .  S
C2269      H2274   1.083       .  S
C2269      C2270   1.403       .  A
C2270      C2271   1.413       .  A
C2271      C2272   1.399       .  A
C2271      S2275   1.806       .  S
C2272      H2276   1.084       .  S
S2273      H2278   1.407       .  S
S2275      H2279   1.404       .  S
C2281      H2291   1.084       .  S
C2281      C2282   1.401       .  A
C2281      C2286   1.404       .  A
C2282      C2287   1.481       .  S
C2282      C2283   1.411       .  A
C2283      C2284   1.396       .  A
C2283      S2288   1.806       .  S
C2284      H2289   1.083       .  S
C2284      C2285   1.406       .  A
C2285      C2286   1.420       .  A
C2286      S2290   1.802       .  S
C2287      C2292   1.411       .  A
C2287      C2296   1.400       .  A
S2288      H2304   1.406       .  S
S2290      H2301   1.407       .  S
C2292      C2293   1.407       .  A
C2292      S2297   1.805       .  S
C2293      H2298   1.083       .  S
C2293      C2294   1.403       .  A
C2294      C2295   1.410       .  A
C2295      C2296   1.398       .  A
C2295      S2299   1.806       .  S
C2296      H2300   1.083       .  S
S2297      H2302   1.407       .  S
S2299      H2303   1.406       .  S
C2305      H2315   1.084       .  S
C2305      C2306   1.402       .  A
C2305      C2310   1.406       .  A
C2306      C2311   1.483       .  S
C2306      C2307   1.411       .  A
C2307      C2308   1.396       .  A
C2307      S2312   1.806       .  S
C2308      H2313   1.083       .  S
C2308      C2309   1.407       .  A
C2309      C2310   1.420       .  A
C2310      S2314   1.801       .  S
C2311      C2316   1.409       .  A
C2311      C2320   1.404       .  A
S2312      H2328   1.405       .  S
S2314      H2325   1.407       .  S
C2316      C2317   1.402       .  A
C2316      S2321   1.806       .  S
C2317      H2322   1.082       .  S
C2317      C2318   1.403       .  A
C2318      C2319   1.412       .  A
C2319      C2320   1.404       .  A
C2319      S2323   1.800       .  S
C2320      H2324   1.083       .  S
S2321      H2326   1.407       .  S
S2323      H2327   1.406       .  S
