geometry optimzed in LAMMPS
_audit_creation_date              2020-11-30 
_audit_creation_method            'lammps2cif' 
_symmetry_space_group_name_H-M    'P1' 
_symmetry_Int_Tables_number       1 
_symmetry_cell_setting            triclinic 
loop_ 
_symmetry_equiv_pos_as_xyz 
  x,y,z 
_cell_length_a                    29.14716389 
_cell_length_b                    43.11348092408471 
_cell_length_c                    46.20936212636311 
_cell_angle_alpha                 89.70985953760753 
_cell_angle_beta                  85.21329403565774 
_cell_angle_gamma                 83.91583226837099 
loop_ 
_atom_site_label 
_atom_site_type_symbol 
_atom_site_fract_x 
_atom_site_fract_y 
_atom_site_fract_z 
_atom_site_charge 
C1          C  0.03208691  0.50281452  0.13987842     0.31700
C2          C  0.44108954  0.99820163  0.13521348     0.31700
C3          C  0.00303317  0.49929899  0.16892372    -0.04500
C4          C  0.01264922  0.02758383  0.12300801    -0.05300
C5          C  0.01586052  0.47673588  0.12169321    -0.05100
C6          C  0.46048721  0.99593803  0.16559350    -0.04500
C7          C  0.46432595  0.02697660  0.12257846    -0.05300
C8          C  0.46630456  0.47622312  0.12122411    -0.05100
C9          C  0.44189159  0.99669020  0.19415666    -0.30500
N10         N  0.47699629  0.99680325  0.21178969     0.16000
C11         C  0.01233932  0.49775714  0.19761208    -0.30500
H12         H  0.04588932  0.49832864  0.20592819     0.17900
C13         C  0.45099298  0.05429671  0.10807221    -0.29500
N14         N  0.48923064  0.06941501  0.10106333     0.14700
C15         C  0.02653562  0.05362787  0.10910270    -0.29500
C16         C  0.46051070  0.45203694  0.10283166    -0.29800
N17         N  0.00508355  0.43837916  0.09204550     0.15200
H18         H  0.42781300  0.44499294  0.09719044     0.17800
C19         C  0.03780879  0.45319397  0.10390695    -0.29800
H20         H  0.07481744  0.44737203  0.09975518     0.17800
H21         H  0.06161688  0.05986646  0.10588120     0.17800
H22         H  0.40550990  0.99792785  0.20155017     0.17900
H23         H  0.41634748  0.06223935  0.10252783     0.17800
C24         C  0.28121131  0.50247483  0.13733034     0.31700
C25         C  0.18915516  0.00052385  0.14021323     0.31700
C26         C  0.25435782  0.50639800  0.16781052    -0.04500
C27         C  0.25990413  0.02691353  0.12240109    -0.05300
C28         C  0.25994247  0.47351667  0.12551384    -0.05100
C29         C  0.21223899  0.00070381  0.16921108    -0.04500
C30         C  0.21091327  0.02731970  0.12416518    -0.05300
C31         C  0.21093154  0.47530491  0.12723531    -0.05100
C32         C  0.19717996  0.00101427  0.19827062    -0.30500
N33         N  0.23463521  0.00061225  0.21395261     0.16000
C34         C  0.26626344  0.50924739  0.19594615    -0.30500
H35         H  0.30100618  0.50905948  0.20264689     0.17900
C36         C  0.19344458  0.05372739  0.11054790    -0.29500
N37         N  0.22930881  0.06939633  0.10061530     0.14700
C38         C  0.26984461  0.05362807  0.10758452    -0.29500
C39         C  0.19880723  0.44851333  0.11538384    -0.29800
N40         N  0.23777558  0.43006990  0.10641674     0.15200
H41         H  0.16391910  0.44293725  0.11312685     0.17800
C42         C  0.27533454  0.44483000  0.11226984    -0.29800
H43         H  0.31105057  0.43562242  0.10702715     0.17800
H44         H  0.30384273  0.06113834  0.10239633     0.17800
H45         H  0.16164477  0.00160129  0.20737122     0.17900
H46         H  0.15729079  0.06118947  0.10819786     0.17800
C47         C  0.51317640  0.00239301  0.37307460     0.31700
C48         C  0.41449818  0.00654650  0.37575091     0.31700
C49         C  0.49065625  0.99952858  0.34406209    -0.04500
C50         C  0.48723617  0.47854513  0.39440141    -0.05300
C51         C  0.48600320  0.03248975  0.38482589    -0.05100
C52         C  0.44146068  0.00145187  0.34548292    -0.04500
C53         C  0.43806466  0.47995328  0.39572216    -0.05300
C54         C  0.43691863  0.03527615  0.38641659    -0.05100
C55         C  0.42937219  0.00146135  0.31728042    -0.30500
N56         N  0.46865451  0.99951561  0.29912281     0.16000
C57         C  0.50601917  0.99847815  0.31498771    -0.30500
H58         H  0.04148220  0.99893728  0.30549333     0.17900
C59         C  0.42598905  0.45462213  0.41197108    -0.29500
N60         N  0.46521950  0.43841061  0.42041134     0.14700
C61         C  0.50253784  0.45259521  0.40986609    -0.29500
C62         C  0.42281179  0.06533374  0.39652352    -0.29800
N63         N  0.46138061  0.07967339  0.40050605     0.15200
H64         H  0.38751302  0.07589949  0.40065586     0.17800
C65         C  0.49955082  0.05995703  0.39349363    -0.29800
H66         H  0.53481321  0.06531229  0.39476662     0.17800
H67         H  0.03885006  0.44541455  0.41258831     0.17800
H68         H  0.39455380  0.00364190  0.31042834     0.17900
H69         H  0.39134944  0.44799970  0.41667818     0.17800
C70         C  0.26167860  0.00778407  0.37733978     0.31700
C71         C  0.16394404  0.00855561  0.37566000     0.31700
C72         C  0.24217378  0.00854684  0.34709740    -0.04500
C73         C  0.23589128  0.48055894  0.39118357    -0.05300
C74         C  0.23063876  0.03555026  0.39265706    -0.05100
C75         C  0.19357081  0.00888604  0.34636632    -0.04500
C76         C  0.18737832  0.48098695  0.39016865    -0.05300
C77         C  0.18178705  0.03610385  0.39204560    -0.05100
C78         C  0.18485418  0.00708340  0.31763410    -0.30500
N79         N  0.22572057  0.00574044  0.30111148     0.16000
C80         C  0.26082415  0.00651659  0.31860268    -0.30500
H81         H  0.29721666  0.00499325  0.31117390     0.17900
C82         C  0.17412244  0.45462207  0.40390291    -0.29500
N83         N  0.21207994  0.43815719  0.41338672     0.14700
C84         C  0.24989395  0.45351143  0.40591018    -0.29500
C85         C  0.16250995  0.06177649  0.40874538    -0.29800
N86         N  0.19718844  0.07635755  0.41917023     0.15200
H87         H  0.12592471  0.06898205  0.41333384     0.17800
C88         C  0.23849481  0.06060841  0.40946709    -0.29800
H89         H  0.27198590  0.06662828  0.41469145     0.17800
H90         H  0.28467428  0.44605877  0.41150772     0.17800
H91         H  0.15135657  0.00613998  0.30935071     0.17900
H92         H  0.13910957  0.44834962  0.40758665     0.17800
Zr93       Zr  0.42526564  0.20903526  0.02703912     2.17500
O94         O  0.38443925  0.20357527  0.07531696    -0.49600
O95         O  0.46436742  0.15708487  0.46848814    -0.72800
O96         O  0.35248665  0.22047434  0.00679784    -0.79600
O97         O  0.02498460  0.16809849  0.05364319    -0.81300
O98         O  0.40343057  0.24953057  0.43111355    -0.77000
O99         O  0.45205277  0.16053079  0.04827297    -0.88600
O100        O  0.50504133  0.17915344  0.43156700    -0.74600
O101        O  0.45992250  0.23072262  0.46001488    -0.84100
O102        O  0.50023158  0.19544043  0.00491495    -0.83700
O103        O  0.42715680  0.26466048  0.03016836    -0.70500
O104        O  0.46999911  0.23454189  0.05704593    -0.82600
Zr105      Zr  0.02262073  0.30219978  0.50550829     2.26400
Zr106      Zr  0.43034177  0.28454147  0.46585686     2.06300
Zr107      Zr  0.04182191  0.22074572  0.03638915     2.10000
Zr108      Zr  0.53792520  0.22196995  0.45449521     1.78800
O109        O  0.03556397  0.23408491  0.08773478    -0.91400
O110        O  0.51983805  0.22624976  0.40391358    -0.39300
O111        O  0.00646953  0.24793558  0.50152540    -0.75900
O112        O  0.51330187  0.27779588  0.45846861    -0.94600
O113        O  0.45605385  0.30924802  0.01923264    -0.87900
O114        O  0.04202236  0.27642948  0.04046874    -0.90700
C115        C  0.48182373  0.15750806  0.44231292     1.03000
C116        C  0.49095924  0.15156800  0.05782037     1.16000
C117        C  0.38216558  0.22918679  0.44475088     1.06700
O118        O  0.39625065  0.30369306  0.42190345    -0.92900
O119        O  0.45849258  0.33231527  0.44680825    -0.88600
O120        O  0.48697668  0.35055416  0.48615456    -0.81800
C121        C  0.47150779  0.35456180  0.46117429     1.13400
O122        O  0.41910099  0.27203255  0.10874063    -0.94800
Zr123      Zr  0.46284863  0.28869369  0.06517952     1.88900
O124        O  0.03994666  0.34558650  0.02681875    -0.71500
O125        O  0.36678041  0.33760349  0.01454037    -0.50800
O126        O  0.38795074  0.31484035  0.08373491    -0.95400
O127        O  0.51265136  0.29547179  0.10424861    -0.52700
O128        O  0.47741611  0.34272192  0.06300221    -0.72000
C129        C  0.50948701  0.35668150  0.04983778     1.00300
O130        O  0.07774805  0.32623275  0.47210692    -0.60800
O131        O  0.11524392  0.19953038  0.05365266    -0.55600
O132        O  0.08386281  0.26813463  0.96872419    -0.92300
O133        O  0.08206341  0.22040958  0.98940094    -0.90700
O134        O  0.10063401  0.18054519  0.46327085    -0.91100
O135        O  0.11182855  0.23789789  0.43751109    -0.89900
C136        C  0.09422001  0.23878064  0.96923801     1.19200
H137        H  0.02392945  0.17107520  0.49864678     0.35100
H138        H  0.52380029  0.28829459  0.44108539     0.46000
H139        H  0.06699045  0.28309755  0.05019472     0.39500
H140        H  0.40541534  0.27111414  0.04536936     0.36000
H141        H  0.52378339  0.24812011  0.39853306     0.27800
H142        H  0.36391199  0.31088305  0.51061243     0.33700
H143        H  0.39456933  0.33553097  0.09049916     0.39600
H144        H  0.10184158  0.16778986  0.44541288     0.34100
H145        H  0.11796803  0.21089544  0.07169271     0.32900
H146        H  0.03433525  0.21396277  0.09803862     0.34600
H147        H  0.49412134  0.29172045  0.12261364     0.33600
H148        H  0.10361959  0.25162686  0.42109262     0.37600
H149        H  0.06553891  0.32625139  0.45280933     0.30300
H150        H  0.39523286  0.21958098  0.08759173     0.34600
H151        H  0.43826644  0.25367611  0.11583834     0.37400
H152        H  0.10966110  0.17850833  0.06093183     0.30000
H153        H  0.07363714  0.34869872  0.47713705     0.42900
H154        H  0.42236616  0.30313355  0.40668065     0.32900
H155        H  0.54568132  0.21373042  0.39263813     0.40600
H156        H  0.03432361  0.31611299  0.09734886     0.32400
H157        H  0.37877622  0.35636848  0.00560257     0.32500
H158        H  0.39616414  0.18361108  0.08404733     0.32700
Zr159      Zr  0.17826205  0.19954006  0.00338001     2.17500
O160        O  0.11196649  0.16797398  0.00774047    -0.49600
O161        O  0.18236288  0.16332073  0.49155832    -0.72800
O162        O  0.14955050  0.20024695  0.95452801    -0.79600
O163        O  0.24228288  0.17187713  0.06859055    -0.81300
O164        O  0.09525411  0.26624601  0.48638233    -0.77000
O165        O  0.19434884  0.15635735  0.03687068    -0.88600
O166        O  0.21669718  0.17677548  0.44814666    -0.74600
O167        O  0.17480256  0.23796756  0.47902433    -0.84100
O168        O  0.26051324  0.19255881  0.00262949    -0.83700
O169        O  0.14814374  0.25505353  0.01124918    -0.70500
O170        O  0.19180952  0.22754596  0.04504593    -0.82600
Zr171      Zr  0.28041283  0.30311409  0.49427218     2.26400
Zr172      Zr  0.16152628  0.29440867  0.48773162     2.06300
Zr173      Zr  0.26903667  0.21813301  0.04720529     2.10000
Zr174      Zr  0.24854295  0.22570569  0.45550635     1.78800
O175        O  0.25149263  0.21587080  0.09953103    -0.91400
O176        O  0.20057832  0.22813338  0.41463200    -0.39300
O177        O  0.25736939  0.25194946  0.49999437    -0.75900
O178        O  0.23370842  0.28209248  0.46119332    -0.94600
O179        O  0.19154358  0.30321162  0.01037251    -0.87900
O180        O  0.24928560  0.27469057  0.05144080    -0.90700
C181        C  0.19673406  0.15748748  0.46468909     1.03000
C182        C  0.21803450  0.15199430  0.05892900     1.16000
C183        C  0.09163527  0.24791976  0.50761535     1.06700
O184        O  0.14538713  0.30368945  0.43709156    -0.92900
O185        O  0.17607184  0.34149070  0.46038094    -0.88600
O186        O  0.24443871  0.35175971  0.47550282    -0.81800
C187        C  0.20919512  0.35869880  0.46117313     1.13400
O188        O  0.19736778  0.27165316  0.10230864    -0.94800
Zr189      Zr  0.16987539  0.28110153  0.05411444     1.88900
O190        O  0.25685171  0.34453870  0.04039313    -0.71500
O191        O  0.11322302  0.31745658  0.98990564    -0.50800
O192        O  0.10886795  0.32431528  0.06053638    -0.95400
O193        O  0.11082350  0.26619933  0.09048325    -0.52700
O194        O  0.19716791  0.33083424  0.07045262    -0.72000
C195        C  0.22839830  0.34910827  0.06275957     1.00300
O196        O  0.31787216  0.32307744  0.44939870    -0.60800
O197        O  0.33516891  0.17737303  0.04208424    -0.55600
O198        O  0.32731398  0.29246582  0.03804204    -0.92300
O199        O  0.32835441  0.24760734  0.05933840    -0.90700
O200        O  0.31496624  0.18847047  0.44022532    -0.91100
O201        O  0.29775820  0.24878034  0.41773930    -0.89900
C202        C  0.33491781  0.26335996  0.03684746     1.19200
H203        H  0.26553625  0.17484095  0.49722578     0.35100
H204        H  0.23548504  0.29248936  0.44266164     0.46000
H205        H  0.25931294  0.28392806  0.06854336     0.39500
H206        H  0.11529443  0.25711615  0.01528191     0.36000
H207        H  0.21042667  0.24574432  0.40268534     0.27800
H208        H  0.13020326  0.33436188  0.53715515     0.33700
H209        H  0.11043319  0.33263491  0.08032039     0.39600
H210        H  0.30687217  0.16793851  0.44745906     0.34100
H211        H  0.33040124  0.16308885  0.05864908     0.32900
H212        H  0.28115477  0.20762844  0.10712212     0.34600
H213        H  0.10697678  0.28333030  0.10492703     0.33600
H214        H  0.29786119  0.23525610  0.40048003     0.37600
H215        H  0.29601171  0.32273456  0.43415668     0.30300
H216        H  0.12270296  0.14782455  0.01655436     0.34600
H217        H  0.18808170  0.29126835  0.11333544     0.37400
H218        H  0.33330751  0.16429265  0.02485144     0.30000
H219        H  0.32170941  0.34540823  0.45214140     0.42900
H220        H  0.16271626  0.28621701  0.42582036     0.32900
H221        H  0.21194181  0.20951855  0.40260454     0.40600
H222        H  0.12527061  0.24839594  0.10128365     0.32400
H223        H  0.12538928  0.33792002  0.99148992     0.32500
H224        H  0.10729758  0.16199782  0.98762990     0.32700
C225        C  0.20830214  0.38717159  0.44437902    -0.11600
C226        C  0.21077499  0.41066602  0.42999397    -0.13100
C227        C  0.19130368  0.12735876  0.45148928    -0.11600
C228        C  0.19217729  0.10346889  0.43711438    -0.13100
C229        C  0.46929162  0.38519581  0.44822387    -0.11600
C230        C  0.46728430  0.41006793  0.43580417    -0.13100
C231        C  0.46425030  0.10907917  0.41242621    -0.11600
C232        C  0.47275623  0.13238252  0.42423426    -0.13100
C233        C  0.35980122  0.00773777  0.37693889    -0.11600
C234        C  0.31609126  0.00764432  0.37752176    -0.13100
C235        C  0.06789001  0.00275958  0.37272278    -0.11600
C236        C  0.11041725  0.00616765  0.37407835    -0.13100
C237        C  0.23250379  0.37674528  0.07999882    -0.11600
C238        C  0.23707595  0.40095678  0.09245966    -0.13100
C239        C  0.22426444  0.09784994  0.08583572    -0.09800
C240        C  0.21930684  0.12246474  0.07339146    -0.13100
C241        C  0.23297465  0.00174672  0.24442734    -0.11600
C242        C  0.23048807  0.00333430  0.27064945    -0.13100
C243        C  0.01840786  0.38823640  0.05942894    -0.11600
C244        C  0.01395884  0.41213379  0.07356985    -0.13100
C245        C  0.49398795  0.12179530  0.07244062    -0.11600
C246        C  0.49122900  0.09750716  0.08550594    -0.13100
C247        C  0.33590321  0.50173738  0.13685377    -0.11600
C248        C  0.38645930  0.99844218  0.13480524    -0.13100
C249        C  0.13506372  0.00041878  0.14028265    -0.11600
C250        C  0.08571596  0.50396854  0.14077451    -0.13100
C251        C  0.47240617  0.99828243  0.24232847    -0.11600
C252        C  0.47027945  0.99914050  0.26859902    -0.13100
C253        C  0.03917101  0.50024367  0.63630037     0.31700
C254        C  0.43952855  0.00328550  0.64217130     0.31700
C255        C  0.01316511  0.50135740  0.66710619    -0.04500
C256        C  0.00980613  0.02819265  0.62211269    -0.05300
C257        C  0.01821123  0.47192834  0.62293282    -0.05100
C258        C  0.46321760  0.00540131  0.67076251    -0.04500
C259        C  0.46128025  0.02899854  0.62428040    -0.05300
C260        C  0.46893839  0.47333536  0.62491566    -0.05100
C261        C  0.44859541  0.00794653  0.69986698    -0.30500
N262        N  0.48628572  0.00861860  0.71517502     0.16000
C263        C  0.02566284  0.50262180  0.69520629    -0.30500
H264        H  0.06043937  0.50284624  0.70173742     0.17900
C265        C  0.44401752  0.05493393  0.60970819    -0.29500
N266        N  0.48010316  0.06988972  0.59868123     0.14700
C267        C  0.01976233  0.05379933  0.60536381    -0.29500
C268        C  0.45680376  0.44649028  0.61325468    -0.29800
N269        N  0.99612329  0.42818586  0.60461916     0.15200
H270        H  0.42193484  0.44034696  0.61207449     0.17800
C271        C  0.03370921  0.44317724  0.60991919    -0.29800
H272        H  0.06942986  0.43374556  0.60511489     0.17800
H273        H  0.05383826  0.06082471  0.59938630     0.17800
H274        H  0.41317851  0.00899529  0.70927440     0.17900
H275        H  0.40787321  0.06264769  0.60761287     0.17800
C276        C  0.28969624  0.50157480  0.63969787     0.31700
C277        C  0.19094848  0.00281342  0.63706905     0.31700
C278        C  0.25892296  0.50125454  0.66848129    -0.04500
C279        C  0.26322781  0.03076982  0.62616910    -0.05300
C280        C  0.27294183  0.47443788  0.62327554    -0.05100
C281        C  0.20931581  0.00131760  0.66773752    -0.04500
C282        C  0.21471680  0.03134700  0.62397296    -0.05300
C283        C  0.22446456  0.47452980  0.62146571    -0.05100
C284        C  0.19015146  0.99995566  0.69602543    -0.30500
N285        N  0.22482206  0.99919656  0.71404123     0.16000
C286        C  0.26668190  0.50177419  0.69737930    -0.30500
H287        H  0.29987532  0.50204774  0.70624065     0.17900
C288        C  0.20283112  0.05743951  0.60729523    -0.29500
N289        N  0.24170329  0.07187406  0.60001044     0.14700
C290        C  0.27827265  0.05586871  0.61137563    -0.29500
C291        C  0.21907603  0.44981759  0.60362293    -0.29800
N292        N  0.26165971  0.43528651  0.59483353     0.15200
H293        H  0.18667280  0.44333203  0.59691623     0.17800
C294        C  0.29459058  0.44990910  0.60663671    -0.29800
H295        H  0.33154589  0.44362410  0.60278821     0.17800
H296        H  0.31364895  0.06155983  0.60825422     0.17800
H297        H  0.15381187  0.99967176  0.70300416     0.17900
H298        H  0.16887369  0.06480612  0.60027901     0.17800
C299        C  0.51156362  0.00954381  0.87918306     0.31700
C300        C  0.41397677  0.00912464  0.87689317     0.31700
C301        C  0.49242050  0.01120339  0.84883058    -0.04500
C302        C  0.48913256  0.47735212  0.89285550    -0.05300
C303        C  0.47949452  0.03633357  0.89518297    -0.05100
C304        C  0.44391855  0.01093610  0.84772319    -0.04500
C305        C  0.44064146  0.47736845  0.89136519    -0.05300
C306        C  0.43081855  0.03623800  0.89421627    -0.05100
C307        C  0.43569415  0.01111247  0.81876862    -0.30500
N308        N  0.47666833  0.01160103  0.80254776     0.16000
C309        C  0.51138211  0.01158807  0.82043530    -0.30500
H310        H  0.04583962  0.01256638  0.81384787     0.17900
C311        C  0.42720861  0.45165269  0.90587889    -0.29500
N312        N  0.46498640  0.43590460  0.91614833     0.14700
C313        C  0.50292114  0.45104086  0.90855362    -0.29500
C314        C  0.41038207  0.06112739  0.91141311    -0.29800
N315        N  0.44424499  0.07590190  0.92248243     0.15200
H316        H  0.37359669  0.06770277  0.91585193     0.17800
C317        C  0.48614987  0.06107421  0.91269519    -0.29800
H318        H  0.51920595  0.06754996  0.91828096     0.17800
H319        H  0.03602584  0.44412855  0.91430468     0.17800
H320        H  0.40243391  0.01044341  0.81009497     0.17900
H321        H  0.39240061  0.44487586  0.90889022     0.17800
C322        C  0.26272827  0.00461312  0.87431198     0.31700
C323        C  0.16376576  0.00823203  0.87760349     0.31700
C324        C  0.23972541  0.00081030  0.84559509    -0.04500
C325        C  0.23980247  0.47445449  0.89092847    -0.05300
C326        C  0.23521196  0.03479530  0.88557526    -0.05100
C327        C  0.19042230  0.00251088  0.84735901    -0.04500
C328        C  0.19061327  0.47679072  0.89250469    -0.05300
C329        C  0.18607843  0.03718388  0.88749286    -0.05100
C330        C  0.17786864  0.00096923  0.81941726    -0.30500
N331        N  0.21690551  0.99839455  0.80108878     0.16000
C332        C  0.25459800  0.99837504  0.81653139    -0.30500
H333        H  0.29002999  0.99764598  0.80721252     0.17900
C334        C  0.17738960  0.45125309  0.90784974    -0.29500
N335        N  0.21600891  0.43385276  0.91559118     0.14700
C336        C  0.25407337  0.44756058  0.90547239    -0.29500
C337        C  0.17138612  0.06678803  0.89822291    -0.29800
N338        N  0.20962922  0.08136512  0.90218588     0.15200
H339        H  0.13594810  0.07672949  0.90323255     0.17800
C340        C  0.24821004  0.06222867  0.89461990    -0.29800
H341        H  0.28330066  0.06776307  0.89627029     0.17800
H342        H  0.28948580  0.43849832  0.90831975     0.17800
H343        H  0.14292396  0.00266410  0.81279899     0.17900
H344        H  0.14228145  0.44564591  0.91291783     0.17800
Zr345      Zr  0.43414348  0.20010906  0.49967655     2.17500
O346        O  0.36720004  0.16924433  0.50411813    -0.49600
O347        O  0.42612138  0.16241400  0.99545182    -0.72800
O348        O  0.40567403  0.20384417  0.45067596    -0.79600
O349        O  0.98900166  0.17241891  0.56638944    -0.81300
O350        O  0.34081447  0.26610809  0.98714097    -0.77000
O351        O  0.44934714  0.15641717  0.53292960    -0.88600
O352        O  0.46363473  0.17469026  0.95269364    -0.74600
O353        O  0.42169481  0.23613154  0.98106409    -0.84100
O354        O  0.51670111  0.19224294  0.49669994    -0.83700
O355        O  0.40391770  0.25534944  0.50933010    -0.70500
O356        O  0.45085767  0.22591121  0.54164430    -0.82600
Zr357      Zr  0.02696155  0.30210871  0.99506764     2.26400
Zr358      Zr  0.40825976  0.29295750  0.98702784     2.06300
Zr359      Zr  0.02053548  0.21730294  0.54484222     2.10000
Zr360      Zr  0.49669640  0.22311979  0.95964041     1.78800
O361        O  0.00873729  0.21547002  0.59754040    -0.91400
O362        O  0.45067101  0.22360298  0.91790842    -0.39300
O363        O  0.00138363  0.25195365  0.00226978    -0.75900
O364        O  0.48105397  0.27950288  0.96234530    -0.94600
O365        O  0.44785919  0.30319621  0.50955925    -0.87900
O366        O  0.00184873  0.27391429  0.54990676    -0.90700
C367        C  0.44188588  0.15607687  0.96892840     1.03000
C368        C  0.47344834  0.15141669  0.55475299     1.16000
C369        C  0.33759116  0.24886280  0.00912183     1.06700
O370        O  0.38936063  0.29908218  0.93661102    -0.92900
O371        O  0.42800809  0.33801643  0.95841533    -0.88600
O372        O  0.49132145  0.34988507  0.97884017    -0.81800
C373        C  0.45930271  0.35601198  0.96194752     1.13400
O374        O  0.36519657  0.26558049  0.58661826    -0.94800
Zr375      Zr  0.42821231  0.27885745  0.55252875     1.88900
O376        O  0.01278213  0.34301187  0.54051384    -0.71500
O377        O  0.36811467  0.31894128  0.49070292    -0.50800
O378        O  0.36622670  0.32074297  0.56368510    -0.95400
O379        O  0.45765713  0.26254919  0.59887020    -0.52700
O380        O  0.45617221  0.32767702  0.57032224    -0.72000
C381        C  0.48681023  0.34630398  0.56236729     1.00300
O382        O  0.06299037  0.32008959  0.94879005    -0.60800
O383        O  0.08454484  0.17526772  0.53847022    -0.55600
O384        O  0.07980486  0.29012059  0.53827320    -0.92300
O385        O  0.08159159  0.24438366  0.55777074    -0.90700
O386        O  0.05475795  0.18652272  0.94506697    -0.91100
O387        O  0.04064699  0.24337306  0.91962575    -0.89900
C388        C  0.08786186  0.26112169  0.53593570     1.19200
H389        H  0.00630579  0.17562789  0.00150382     0.35100
H390        H  0.48406480  0.28884368  0.94337136     0.46000
H391        H  0.01143827  0.28227363  0.56755524     0.39500
H392        H  0.37114185  0.25741729  0.51404787     0.36000
H393        H  0.45889086  0.24190119  0.90637604     0.27800
H394        H  0.37843754  0.33696704  0.03401592     0.33700
H395        H  0.37624182  0.33943619  0.55347901     0.39600
H396        H  0.04533169  0.17518951  0.92832942     0.34100
H397        H  0.07454247  0.15766506  0.55037272     0.32900
H398        H  0.03771458  0.20423647  0.60369330     0.34600
H399        H  0.44082148  0.24479706  0.60578768     0.33600
H400        H  0.03713251  0.23007448  0.90271335     0.37600
H401        H  0.04018784  0.31958186  0.93414758     0.30300
H402        H  0.37611727  0.14986112  0.51473715     0.34600
H403        H  0.36634848  0.27845422  0.60417619     0.37400
H404        H  0.08834137  0.16706147  0.51842784     0.30000
H405        H  0.06733048  0.34244359  0.95075289     0.42900
H406        H  0.41218792  0.28465509  0.92498957     0.32900
H407        H  0.46452785  0.20558156  0.90578397     0.40600
H408        H  0.93493379  0.28551376  0.61241972     0.32400
H409        H  0.38042196  0.33930065  0.49271730     0.32500
H410        H  0.36487710  0.16170120  0.48415611     0.32700
Zr411      Zr  0.18134016  0.20942914  0.52402928     2.17500
O412        O  0.13905131  0.19995564  0.57105538    -0.49600
O413        O  0.21211006  0.15647831  0.97311348    -0.72800
O414        O  0.10795093  0.21988228  0.50440046    -0.79600
O415        O  0.28318964  0.16723934  0.55088748    -0.81300
O416        O  0.15039022  0.24510377  0.93365066    -0.77000
O417        O  0.20842092  0.16112948  0.54511371    -0.88600
O418        O  0.25163430  0.17901196  0.93609218    -0.74600
O419        O  0.20591903  0.22823904  0.96274693    -0.84100
O420        O  0.25581690  0.19679456  0.50012855    -0.83700
O421        O  0.17728015  0.26542731  0.53146749    -0.70500
O422        O  0.22741557  0.23383782  0.55406162    -0.82600
Zr423      Zr  0.26782975  0.30234946  0.00630758     2.26400
Zr424      Zr  0.17613467  0.28217712  0.96704162     2.06300
Zr425      Zr  0.29821020  0.22031125  0.53374830     2.10000
Zr426      Zr  0.28442104  0.22065390  0.96001351     1.78800
O427        O  0.29403753  0.22854708  0.58599117    -0.91400
O428        O  0.27227209  0.22526072  0.90850786    -0.39300
O429        O  0.25262114  0.24774257  0.00364558    -0.75900
O430        O  0.25938261  0.27628971  0.96153672    -0.94600
O431        O  0.21133696  0.31036370  0.51884457    -0.87900
O432        O  0.29553177  0.27616820  0.53898635    -0.90700
C433        C  0.22891759  0.15723573  0.94681722     1.03000
C434        C  0.24766260  0.15165690  0.55378891     1.16000
C435        C  0.12752284  0.22568627  0.94749744     1.06700
O436        O  0.14252483  0.29882630  0.92221903    -0.92900
O437        O  0.20459052  0.32875465  0.94579489    -0.88600
O438        O  0.23119268  0.34940569  0.98476661    -0.81800
C439        C  0.21724492  0.35178409  0.95923126     1.13400
O440        O  0.17816985  0.27184133  0.60794200    -0.94800
Zr441      Zr  0.22093275  0.28755195  0.56360017     1.88900
O442        O  0.29429577  0.34459323  0.52770640    -0.71500
O443        O  0.11875506  0.33672321  0.51766403    -0.50800
O444        O  0.14929609  0.31481404  0.58631882    -0.95400
O445        O  0.27497306  0.29027878  0.60085612    -0.52700
O446        O  0.23682406  0.34115843  0.56315611    -0.72000
C447        C  0.26856231  0.35543059  0.55008619     1.00300
O448        O  0.32227324  0.32520365  0.97132845    -0.60800
O449        O  0.37321350  0.20135925  0.55001022    -0.55600
O450        O  0.33875814  0.27037207  0.46802340    -0.92300
O451        O  0.33779197  0.22162948  0.48665384    -0.90700
O452        O  0.34465865  0.17876624  0.96739157    -0.91100
O453        O  0.35954977  0.23448391  0.94042995    -0.89900
C454        C  0.34941174  0.24103276  0.46729143     1.19200
H455        H  0.27192286  0.17073562  0.00217364     0.35100
H456        H  0.27085367  0.28612894  0.94401909     0.46000
H457        H  0.31985806  0.28352197  0.54881790     0.39500
H458        H  0.15606456  0.27110987  0.54778076     0.36000
H459        H  0.27585436  0.24728856  0.90356920     0.27800
H460        H  0.10800228  0.31016040  0.00999580     0.33700
H461        H  0.15666236  0.33608547  0.59074853     0.39600
H462        H  0.34503620  0.16509192  0.95020571     0.34100
H463        H  0.37683020  0.21380156  0.56733597     0.32900
H464        H  0.29135433  0.20770750  0.59466500     0.34600
H465        H  0.26292498  0.27823963  0.61757536     0.33600
H466        H  0.35430644  0.24385286  0.92124341     0.37600
H467        H  0.31015384  0.32409550  0.95208296     0.30300
H468        H  0.15662305  0.20907635  0.58571044     0.34600
H469        H  0.19216481  0.25048814  0.61195721     0.37400
H470        H  0.36852294  0.18063661  0.55838583     0.30000
H471        H  0.31782009  0.34789083  0.97539656     0.42900
H472        H  0.16859194  0.29657378  0.90691578     0.32900
H473        H  0.29966713  0.21323192  0.89829359     0.40600
H474        H  0.27031975  0.31217193  0.60776434     0.32400
H475        H  0.13084948  0.35612766  0.51028595     0.32500
H476        H  0.14174965  0.17740037  0.57551493     0.32700
C477        C  0.21657313  0.38147001  0.94458869    -0.11600
C478        C  0.21638578  0.40578898  0.93133555    -0.13100
C479        C  0.21965170  0.13263493  0.92844637    -0.11600
C480        C  0.21170850  0.11000825  0.91553766    -0.13100
C481        C  0.46008073  0.38446131  0.94569801    -0.11600
C482        C  0.46354415  0.40821309  0.93212151    -0.13100
C483        C  0.43793963  0.10250688  0.94097097    -0.11600
C484        C  0.43628544  0.12611242  0.95572566    -0.13100
C485        C  0.36016534  0.00723348  0.87526339    -0.11600
C486        C  0.31716221  0.00500687  0.87405443    -0.13100
C487        C  0.06500835  0.01016523  0.88006993    -0.11600
C488        C  0.10889243  0.00966333  0.87920960    -0.13100
C489        C  0.27415451  0.38538213  0.56211279    -0.11600
C490        C  0.27017105  0.40903356  0.57647593    -0.13100
C491        C  0.24548497  0.09866356  0.58276899    -0.09800
C492        C  0.25003553  0.12213159  0.56873937    -0.13100
C493        C  0.21978648  0.99838684  0.74448853    -0.11600
C494        C  0.21788934  0.99811624  0.77068228    -0.13100
C495        C  0.98921334  0.37433747  0.58026121    -0.11600
C496        C  0.99504634  0.39862341  0.59192016    -0.13100
C497        C  0.47253022  0.12219133  0.56982075    -0.11600
C498        C  0.47579794  0.09788464  0.58299046    -0.13100
C499        C  0.34346285  0.50170872  0.64120293    -0.11600
C500        C  0.38532806  0.00357882  0.64322919    -0.13100
C501        C  0.13637003  0.00210479  0.63600942    -0.11600
C502        C  0.09400510  0.50066073  0.63504712    -0.13100
C503        C  0.48497799  0.01014016  0.74567465    -0.11600
C504        C  0.48207241  0.01102151  0.77197466    -0.13100
C505        C  0.03837581  0.99896403  0.13686445     0.31700
C506        C  0.43388406  0.50195839  0.13853935     0.31700
C507        C  0.00854781  0.99737946  0.16592171    -0.04500
C508        C  0.00498224  0.53157869  0.12731948    -0.05300
C509        C  0.02123412  0.97244226  0.11935005    -0.05100
C510        C  0.45399540  0.49907319  0.16873394    -0.04500
C511        C  0.45539893  0.53142067  0.12669412    -0.05300
C512        C  0.47287612  0.97133208  0.11874898    -0.05100
C513        C  0.43634641  0.49821064  0.19743189    -0.30500
N514        N  0.47201421  0.49806252  0.21467813     0.16000
C515        C  0.01716197  0.99826322  0.19474135    -0.30500
H516        H  0.05061169  0.99910598  0.20311988     0.17900
C517        C  0.44027032  0.55759953  0.11139673    -0.29500
N518        N  0.47732988  0.57331394  0.10336980     0.14700
C519        C  0.01785476  0.55773685  0.11322585    -0.29500
C520        C  0.46664248  0.94712143  0.10036581    -0.29800
N521        N  0.00845742  0.93495665  0.08881969     0.15200
H522        H  0.43377787  0.94081570  0.09426915     0.17800
C523        C  0.04202567  0.94887249  0.10093769    -0.29800
H524        H  0.07887060  0.94270148  0.09628163     0.17800
H525        H  0.05275580  0.56415499  0.10927366     0.17800
H526        H  0.40023055  0.49848264  0.20521347     0.17900
H527        H  0.40542688  0.56393417  0.10534544     0.17800
C528        C  0.28771520  0.99898653  0.13684040     0.31700
C529        C  0.18293336  0.50488837  0.14029061     0.31700
C530        C  0.26136490  0.00000788  0.16751911    -0.04500
C531        C  0.25456998  0.52940696  0.12068727    -0.05300
C532        C  0.26671440  0.97105811  0.12339619    -0.05100
C533        C  0.20540578  0.50752654  0.16935300    -0.04500
C534        C  0.20557150  0.53035311  0.12216073    -0.05300
C535        C  0.21763406  0.97249608  0.12525055    -0.05100
C536        C  0.18986509  0.51090417  0.19841221    -0.30500
N537        N  0.22703200  0.51189388  0.21425656     0.16000
C538        C  0.27369845  0.99997778  0.19566924    -0.30500
H539        H  0.30845611  0.99959496  0.20239067     0.17900
C540        C  0.18937073  0.55624158  0.10685610    -0.29500
N541        N  0.22601991  0.57104856  0.09623777     0.14700
C542        C  0.26573554  0.55512147  0.10447542    -0.29500
C543        C  0.20578501  0.94567143  0.11392865    -0.29800
N544        N  0.24500599  0.92761009  0.10525729     0.15200
H545        H  0.17102438  0.93943218  0.11242016     0.17800
C546        C  0.28251258  0.94242997  0.11065891    -0.29800
H547        H  0.31826415  0.93297647  0.10602996     0.17800
H548        H  0.30014443  0.56201996  0.09945396     0.17800
H549        H  0.15419287  0.51223930  0.20738648     0.17900
H550        H  0.15346266  0.56408103  0.10411992     0.17800
C551        C  0.51069663  0.50328793  0.37567744     0.31700
C552        C  0.41196487  0.50645781  0.37846619     0.31700
C553        C  0.48819479  0.50014866  0.34671222    -0.04500
C554        C  0.48893156  0.97793735  0.39194772    -0.05300
C555        C  0.48292624  0.53306669  0.38758221    -0.05100
C556        C  0.43901410  0.50161054  0.34822172    -0.04500
C557        C  0.43979173  0.98005838  0.39312854    -0.05300
C558        C  0.43387481  0.53535636  0.38922682    -0.05100
C559        C  0.42685081  0.50073424  0.32011807    -0.30500
N560        N  0.46603348  0.49880905  0.30191060     0.16000
C561        C  0.50347035  0.49852840  0.31763741    -0.30500
H562        H  0.03818355  0.49664363  0.30773479     0.17900
C563        C  0.42626820  0.95539119  0.40966388    -0.29500
N564        N  0.46464505  0.93857105  0.41845103     0.14700
C565        C  0.50286846  0.95190936  0.40788696    -0.29500
C566        C  0.41914630  0.56510066  0.39991732    -0.29800
N567        N  0.45734111  0.57973650  0.40417466     0.15200
H568        H  0.38367142  0.57520798  0.40436928     0.17800
C569        C  0.49586871  0.56050091  0.39677363    -0.29800
H570        H  0.53096178  0.56611784  0.39824276     0.17800
H571        H  0.03908380  0.94034802  0.40755729     0.17800
H572        H  0.39201240  0.50230765  0.31333542     0.17900
H573        H  0.39116269  0.94960419  0.41432227     0.17800
C574        C  0.25857324  0.50946442  0.37855435     0.31700
C575        C  0.16090596  0.50975110  0.37707439     0.31700
C576        C  0.23851922  0.51209629  0.34823355    -0.04500
C577        C  0.23827660  0.97980868  0.39137813    -0.05300
C578        C  0.22704573  0.53624472  0.39538857    -0.05100
C579        C  0.18991215  0.51217452  0.34771963    -0.04500
C580        C  0.18968384  0.98059233  0.39023979    -0.05300
C581        C  0.17827323  0.53645032  0.39475272    -0.05100
C582        C  0.18020411  0.51349042  0.31899652    -0.30500
N583        N  0.22039380  0.51432267  0.30204724     0.16000
C584        C  0.25608330  0.51345119  0.31943283    -0.30500
H585        H  0.29220430  0.51326952  0.31169860     0.17900
C586        C  0.17567368  0.95466550  0.40415654    -0.29500
N587        N  0.21319703  0.93804847  0.41387034     0.14700
C588        C  0.25156583  0.95283040  0.40636584    -0.29500
C589        C  0.15825903  0.56160187  0.41189312    -0.29800
N590        N  0.19238165  0.57637018  0.42273751     0.15200
H591        H  0.12153899  0.56851760  0.41621680     0.17800
C592        C  0.23407658  0.56116197  0.41278537    -0.29800
H593        H  0.26732948  0.56767172  0.41794147     0.17800
H594        H  0.28626565  0.94481309  0.41175958     0.17800
H595        H  0.14637650  0.51332472  0.31096881     0.17900
H596        H  0.14053427  0.94853615  0.40744182     0.17800
Zr597      Zr  0.41933221  0.70899371  0.01961261     2.17500
O598        O  0.38400515  0.70571219  0.06986225    -0.49600
O599        O  0.45601682  0.65829182  0.47231369    -0.72800
O600        O  0.34466527  0.72413877  0.00394981    -0.79600
O601        O  0.01744391  0.66750491  0.05358147    -0.81300
O602        O  0.40007689  0.74783934  0.43325324    -0.77000
O603        O  0.44125784  0.65923622  0.04077368    -0.88600
O604        O  0.50089694  0.67860164  0.43620966    -0.74600
O605        O  0.45468476  0.73119956  0.46342083    -0.84100
O606        O  0.49068918  0.69365857  0.99437049    -0.83700
O607        O  0.42583516  0.76395706  0.02561724    -0.70500
O608        O  0.47031771  0.72977369  0.04808145    -0.82600
Zr609      Zr  0.01731827  0.80334746  0.50599010     2.26400
Zr610      Zr  0.42481990  0.78502753  0.46705652     2.06300
Zr611      Zr  0.04110403  0.71407191  0.02745675     2.10000
Zr612      Zr  0.53255371  0.72267158  0.45810674     1.78800
O613        O  0.05786764  0.71666133  0.07873455    -0.91400
O614        O  0.51255656  0.72453038  0.40785369    -0.39300
O615        O  0.00273189  0.74862972  0.50444774    -0.75900
O616        O  0.50786954  0.77869258  0.46033616    -0.94600
O617        O  0.46144677  0.80706327  0.01464760    -0.87900
O618        O  0.04426034  0.76988787  0.03360186    -0.90700
C619        C  0.47603420  0.65765769  0.44670597     1.03000
C620        C  0.47794285  0.65056639  0.05315380     1.16000
C621        C  0.37800822  0.72806375  0.44720461     1.06700
O622        O  0.39129046  0.80182899  0.42223208    -0.92900
O623        O  0.45191685  0.83280914  0.44686648    -0.88600
O624        O  0.47997338  0.85229016  0.48582519    -0.81800
C625        C  0.46512014  0.85548490  0.46061636     1.13400
O626        O  0.43346341  0.76621363  0.10487168    -0.94800
Zr627      Zr  0.47023280  0.78285226  0.05886838     1.88900
O628        O  0.03719731  0.84409389  0.02017976    -0.71500
O629        O  0.37291815  0.83986521  0.01233553    -0.50800
O630        O  0.39793983  0.80992010  0.08104430    -0.95400
O631        O  0.52632770  0.78475744  0.09476066    -0.52700
O632        O  0.48555516  0.83658845  0.05965369    -0.72000
C633        C  0.51460952  0.85202502  0.04525470     1.00300
O634        O  0.07356047  0.82430298  0.47075258    -0.60800
O635        O  0.09105744  0.66685898  0.00849391    -0.55600
O636        O  0.08832358  0.76737596  0.96370264    -0.92300
O637        O  0.08982985  0.71957309  0.98472429    -0.90700
O638        O  0.09382052  0.67908476  0.46873596    -0.91100
O639        O  0.10921481  0.73195909  0.44146054    -0.89900
C640        C  0.10134766  0.73847028  0.96481110     1.19200
H641        H  0.02040362  0.67147001  0.50405573     0.35100
H642        H  0.51876958  0.78884220  0.44283602     0.46000
H643        H  0.06921631  0.77581808  0.04386356     0.39500
H644        H  0.40658382  0.77087746  0.04236838     0.36000
H645        H  0.51335356  0.74662683  0.40210311     0.27800
H646        H  0.35812548  0.81234990  0.51079689     0.33700
H647        H  0.40702256  0.82821332  0.09118050     0.39600
H648        H  0.08553435  0.66099748  0.45792543     0.34100
H649        H  0.09217420  0.65141475  0.02442308     0.32900
H650        H  0.02787884  0.71565887  0.09025370     0.34600
H651        H  0.52316688  0.76629134  0.10726748     0.33600
H652        H  0.11282479  0.72223913  0.42193960     0.37600
H653        H  0.06259834  0.82207299  0.45131118     0.30300
H654        H  0.39421606  0.72331070  0.08036380     0.34600
H655        H  0.44941596  0.74531914  0.10858247     0.37400
H656        H  0.07546683  0.65705677  0.99328848     0.30000
H657        H  0.06928381  0.84718899  0.47363841     0.42900
H658        H  0.41766926  0.80075117  0.40716008     0.32900
H659        H  0.53939551  0.71325616  0.39640344     0.40600
H660        H  0.02206212  0.80770799  0.10343830     0.32400
H661        H  0.38538425  0.85848052  0.00341986     0.32500
H662        H  0.39854512  0.68717850  0.07959529     0.32700
Zr663      Zr  0.18366727  0.70550134  0.00116496     2.17500
O664        O  0.12102316  0.70418604  0.03760716    -0.49600
O665        O  0.17703163  0.66417499  0.49497457    -0.72800
O666        O  0.15770434  0.70128090  0.95197203    -0.79600
O667        O  0.24156308  0.67463519  0.06452356    -0.81300
O668        O  0.09196365  0.76677582  0.48704401    -0.77000
O669        O  0.20149420  0.65786550  0.02891133    -0.88600
O670        O  0.21046172  0.67690073  0.45105227    -0.74600
O671        O  0.17137288  0.73809075  0.48076166    -0.84100
O672        O  0.26518680  0.69672209  0.99879968    -0.83700
O673        O  0.15227955  0.76063098  0.00633478    -0.70500
O674        O  0.19495689  0.72851978  0.04721239    -0.82600
Zr675      Zr  0.27677324  0.80382395  0.49449096     2.26400
Zr676      Zr  0.15845114  0.79490316  0.48723388     2.06300
Zr677      Zr  0.27479523  0.72019158  0.04406687     2.10000
Zr678      Zr  0.24533879  0.72476141  0.45787458     1.78800
O679        O  0.26787795  0.71720085  0.09689739    -0.91400
O680        O  0.19992514  0.72580846  0.41596592    -0.39300
O681        O  0.25393202  0.75280308  0.50140102    -0.75900
O682        O  0.23095817  0.78141625  0.46153692    -0.94600
O683        O  0.19160478  0.80785483  0.00706948    -0.87900
O684        O  0.25025999  0.77634659  0.04787420    -0.90700
C685        C  0.19064298  0.65791450  0.46801726     1.03000
C686        C  0.22084590  0.65377552  0.05280859     1.16000
C687        C  0.08786252  0.74998634  0.50932982     1.06700
O688        O  0.14472319  0.80198090  0.43600344    -0.92900
O689        O  0.17484589  0.84099403  0.45889670    -0.88600
O690        O  0.24083355  0.85246714  0.47647606    -0.81800
C691        C  0.20705002  0.85872851  0.46087624     1.13400
O692        O  0.11646947  0.76098595  0.08463447    -0.94800
Zr693      Zr  0.17088735  0.78454050  0.05079443     1.88900
O694        O  0.25957140  0.84449624  0.03937899    -0.71500
O695        O  0.11340962  0.82273432  0.98251797    -0.50800
O696        O  0.10153229  0.82099726  0.05782486    -0.95400
O697        O  0.19432116  0.78598761  0.10041839    -0.52700
O698        O  0.19809382  0.83252567  0.06887056    -0.72000
C699        C  0.23128565  0.84918947  0.06173491     1.00300
O700        O  0.31293285  0.82323990  0.44885233    -0.60800
O701        O  0.33726508  0.67695095  0.03752556    -0.55600
O702        O  0.32874133  0.79713466  0.03421104    -0.92300
O703        O  0.33112440  0.75240629  0.05573426    -0.90700
O704        O  0.31055004  0.68499941  0.44743459    -0.91100
O705        O  0.29557451  0.74417373  0.41847563    -0.89900
C706        C  0.33544356  0.76810459  0.03305194     1.19200
H707        H  0.26105591  0.67553650  0.50094895     0.35100
H708        H  0.23293616  0.79093094  0.44259267     0.46000
H709        H  0.26022095  0.78557459  0.06498505     0.39500
H710        H  0.11941982  0.76290728  0.00874390     0.36000
H711        H  0.20537231  0.74563334  0.40602384     0.27800
H712        H  0.12723459  0.83861263  0.53401014     0.33700
H713        H  0.11245814  0.84171236  0.06026517     0.39600
H714        H  0.30230331  0.67323175  0.43061848     0.34100
H715        H  0.33454239  0.66506682  0.05587810     0.32900
H716        H  0.29225225  0.72930065  0.10330931     0.34600
H717        H  0.20124281  0.76401112  0.10629672     0.33600
H718        H  0.29910181  0.72771537  0.40334841     0.37600
H719        H  0.29050075  0.82289523  0.43395585     0.30300
H720        H  0.11450283  0.72627285  0.04319512     0.34600
H721        H  0.13431844  0.74278896  0.09301852     0.37400
H722        H  0.32990844  0.66201223  0.02294153     0.30000
H723        H  0.31712001  0.84556150  0.45127493     0.42900
H724        H  0.14333707  0.78086302  0.42822819     0.32900
H725        H  0.21623378  0.70949932  0.40270412     0.40600
H726        H  0.16623990  0.79394423  0.11283485     0.32400
H727        H  0.12480509  0.84356346  0.98267945     0.32500
H728        H  0.13395064  0.69346328  0.05458999     0.32700
C729        C  0.20703932  0.88701313  0.44413038    -0.11600
C730        C  0.21087976  0.91050540  0.43010180    -0.13100
C731        C  0.18491787  0.62755433  0.45515003    -0.11600
C732        C  0.18644923  0.60352806  0.44077565    -0.13100
C733        C  0.46445025  0.88566327  0.44671421    -0.11600
C734        C  0.46469482  0.91035688  0.43402872    -0.13100
C735        C  0.45960875  0.60895022  0.41667009    -0.11600
C736        C  0.46765250  0.63221685  0.42875549    -0.13100
C737        C  0.35706549  0.50798634  0.37923631    -0.11600
C738        C  0.31318836  0.50883353  0.37915491    -0.13100
C739        C  0.06472332  0.50476244  0.37452378    -0.11600
C740        C  0.10737660  0.50767237  0.37569135    -0.13100
C741        C  0.23801229  0.87507595  0.07963318    -0.11600
C742        C  0.24423390  0.89858452  0.09202691    -0.13100
C743        C  0.22281975  0.59928327  0.08045788    -0.09800
C744        C  0.22035072  0.62388625  0.06738635    -0.13100
C745        C  0.22550582  0.51365320  0.24490269    -0.11600
C746        C  0.22396130  0.51435561  0.27130961    -0.13100
C747        C  0.01884050  0.88520124  0.05523279    -0.11600
C748        C  0.01569510  0.90895460  0.06975569    -0.13100
C749        C  0.47824090  0.62253208  0.07020258    -0.11600
C750        C  0.47714062  0.59974069  0.08546927    -0.13100
C751        C  0.34258429  0.99851331  0.13538719    -0.11600
C752        C  0.37954779  0.50166886  0.13749376    -0.13100
C753        C  0.12886496  0.50503069  0.14108419    -0.11600
C754        C  0.09204141  0.99954341  0.13870678    -0.13100
C755        C  0.46847734  0.49832080  0.24520822    -0.11600
C756        C  0.46723157  0.49854895  0.27143632    -0.13100
C757        C  0.03759463  0.00106963  0.63788105     0.31700
C758        C  0.44099793  0.50157168  0.64041699     0.31700
C759        C  0.01160751  0.00407097  0.66884634    -0.04500
C760        C  0.01083650  0.52808354  0.62196712    -0.05300
C761        C  0.01585069  0.97224502  0.62585647    -0.05100
C762        C  0.46461686  0.50136717  0.66923873    -0.04500
C763        C  0.46268544  0.52859715  0.62436216    -0.05300
C764        C  0.46731078  0.97408604  0.62847850    -0.05100
C765        C  0.44999923  0.50122730  0.69839355    -0.30500
N766        N  0.48769892  0.50031299  0.71391617     0.16000
C767        C  0.02399929  0.00607567  0.69703327    -0.30500
H768        H  0.05884144  0.00591343  0.70355172     0.17900
C769        C  0.44548060  0.55547671  0.61107111    -0.29500
N770        N  0.48150829  0.57109965  0.60104823     0.14700
C771        C  0.02008479  0.55558345  0.60818691    -0.29500
C772        C  0.45461457  0.94727720  0.61722972    -0.29800
N773        N  0.99209537  0.92938903  0.60655524     0.15200
H774        H  0.41955918  0.94157564  0.61584444     0.17800
C775        C  0.03028443  0.94379632  0.61185729    -0.29800
H776        H  0.06571051  0.93450925  0.60575027     0.17800
H777        H  0.05383720  0.56362925  0.60344144     0.17800
H778        H  0.41457876  0.50162887  0.70766373     0.17900
H779        H  0.40934924  0.56326287  0.60901787     0.17800
C780        C  0.28844955  0.00254021  0.64067156     0.31700
C781        C  0.19220466  0.50211033  0.63619490     0.31700
C782        C  0.25778850  0.00126423  0.66933774    -0.04500
C783        C  0.26477074  0.52951417  0.62455646    -0.05300
C784        C  0.27198148  0.97574905  0.62355533    -0.05100
C785        C  0.21040861  0.50148169  0.66690263    -0.04500
C786        C  0.21623064  0.53020456  0.62253192    -0.05300
C787        C  0.22348736  0.97571561  0.62176444    -0.05100
C788        C  0.19090887  0.50208141  0.69522915    -0.30500
N789        N  0.22540220  0.50225380  0.71329294     0.16000
C790        C  0.26588087  0.00001532  0.69817065    -0.30500
H791        H  0.29915424  0.99981787  0.70702690     0.17900
C792        C  0.20387601  0.55690783  0.60686898    -0.29500
N793        N  0.24253460  0.57160100  0.59984161     0.14700
C794        C  0.27947400  0.55517825  0.61048247    -0.29500
C795        C  0.21821310  0.95124393  0.60365012    -0.29800
N796        N  0.26082272  0.93697583  0.59457754     0.15200
H797        H  0.18581297  0.94468701  0.59700548     0.17800
C798        C  0.29373933  0.95152200  0.60652589    -0.29800
H799        H  0.33070862  0.94534873  0.60260077     0.17800
H800        H  0.31465041  0.56132218  0.60785027     0.17800
H801        H  0.15443496  0.50263908  0.70218632     0.17900
H802        H  0.16954491  0.56485470  0.60077171     0.17800
C803        C  0.51213425  0.50506312  0.87804032     0.31700
C804        C  0.41470714  0.50434005  0.87550368     0.31700
C805        C  0.49352313  0.50417821  0.84758664    -0.04500
C806        C  0.48911185  0.98079379  0.89206574    -0.05300
C807        C  0.47980854  0.53301006  0.89215227    -0.05100
C808        C  0.44508670  0.50377657  0.84640349    -0.04500
C809        C  0.44060030  0.98080850  0.89076013    -0.05300
C810        C  0.43122480  0.53262359  0.89094201    -0.05100
C811        C  0.43717742  0.50192757  0.81752429    -0.30500
N812        N  0.47832654  0.50129610  0.80133780     0.16000
C813        C  0.51282871  0.50256409  0.81922072    -0.30500
H814        H  0.04841472  0.50664058  0.81183146     0.17900
C815        C  0.42801431  0.95408022  0.90406542    -0.29500
N816        N  0.46635450  0.93792294  0.91339920     0.14700
C817        C  0.50374716  0.95371175  0.90633910    -0.29500
C818        C  0.41000363  0.55788820  0.90712097    -0.29800
N819        N  0.44323671  0.57331347  0.91793287     0.15200
H820        H  0.37310406  0.56413404  0.91131907     0.17800
C821        C  0.48559689  0.55849249  0.90901217    -0.29800
H822        H  0.51824921  0.56530765  0.91497912     0.17800
H823        H  0.03732083  0.94595804  0.91101281     0.17800
H824        H  0.40393273  0.50106275  0.80888223     0.17900
H825        H  0.39334107  0.94709706  0.90719424     0.17800
C826        C  0.26379005  0.50032197  0.87403515     0.31700
C827        C  0.16496074  0.50501469  0.87749571     0.31700
C828        C  0.24040949  0.50033550  0.84508271    -0.04500
C829        C  0.23894540  0.98055995  0.89366754    -0.05300
C830        C  0.23723381  0.52939776  0.88835917    -0.05100
C831        C  0.19119145  0.50254825  0.84691444    -0.04500
C832        C  0.18973151  0.98229339  0.89520149    -0.05300
C833        C  0.18806758  0.53248267  0.89034926    -0.05100
C834        C  0.17831996  0.50382919  0.81890995    -0.30500
N835        N  0.21719591  0.50239875  0.80046395     0.16000
C836        C  0.25505880  0.50035654  0.81593605    -0.30500
H837        H  0.29053500  0.49935039  0.80664408     0.17900
C838        C  0.17721172  0.95701995  0.91110754    -0.29500
N839        N  0.21626352  0.94042832  0.91913518     0.14700
C840        C  0.25390508  0.95428218  0.90868476    -0.29500
C841        C  0.17468930  0.56180557  0.90249372    -0.29800
N842        N  0.21361504  0.57537432  0.90740745     0.15200
H843        H  0.13957921  0.57255808  0.90706389     0.17800
C844        C  0.25142988  0.55591376  0.89890146    -0.29800
H845        H  0.28686118  0.56095541  0.90001740     0.17800
H846        H  0.28952119  0.94516595  0.91082911     0.17800
H847        H  0.14329305  0.50610586  0.81240196     0.17900
H848        H  0.14248087  0.95044886  0.91552462     0.17800
Zr849      Zr  0.42842872  0.70166000  0.50368264     2.17500
O850        O  0.36124357  0.67132824  0.51101041    -0.49600
O851        O  0.41934546  0.66226483  0.98791677    -0.72800
O852        O  0.40093614  0.70294381  0.45430807    -0.79600
O853        O  0.98614313  0.67664006  0.57250906    -0.81300
O854        O  0.34104145  0.76950015  0.98319569    -0.77000
O855        O  0.44810257  0.65810260  0.53657605    -0.88600
O856        O  0.45766194  0.67333229  0.94477268    -0.74600
O857        O  0.41575676  0.73834018  0.97443571    -0.84100
O858        O  0.51086650  0.69432013  0.50112589    -0.83700
O859        O  0.39792225  0.75715308  0.51132679    -0.70500
O860        O  0.44447062  0.72908122  0.54485084    -0.82600
Zr861      Zr  0.02835544  0.79839122  0.98933604     2.26400
Zr862      Zr  0.40952806  0.79482369  0.98322298     2.06300
Zr863      Zr  0.01886076  0.71969018  0.54838422     2.10000
Zr864      Zr  0.48836087  0.72294610  0.95011295     1.78800
O865        O  0.01275578  0.71700574  0.60120650    -0.91400
O866        O  0.44001513  0.72744572  0.90945191    -0.39300
O867        O  0.00032808  0.74818928  0.99547357    -0.75900
O868        O  0.47979355  0.77937466  0.95612955    -0.94600
O869        O  0.44113213  0.80525006  0.51044942    -0.87900
O870        O  0.99857743  0.77642221  0.55177070    -0.90700
C871        C  0.43607993  0.65506501  0.96164943     1.03000
C872        C  0.47042807  0.65446797  0.55934331     1.16000
C873        C  0.33582797  0.75328634  0.00566147     1.06700
O874        O  0.38913399  0.80495479  0.93348557    -0.92900
O875        O  0.42961087  0.84051714  0.95584653    -0.88600
O876        O  0.49869091  0.84786479  0.97170808    -0.81800
C877        C  0.46390322  0.85647227  0.95746868     1.13400
O878        O  0.35795034  0.77088714  0.58907375    -0.94800
Zr879      Zr  0.42105668  0.78221546  0.55408699     1.88900
O880        O  0.00366486  0.84633169  0.53902239    -0.71500
O881        O  0.36198775  0.81971755  0.49064669    -0.50800
O882        O  0.36031458  0.82553765  0.56198976    -0.95400
O883        O  0.44928986  0.76563562  0.60062816    -0.52700
O884        O  0.44998630  0.83050204  0.57201411    -0.72000
C885        C  0.48032110  0.84916674  0.56369522     1.00300
O886        O  0.06626916  0.81108759  0.94173874    -0.60800
O887        O  0.08377418  0.67817312  0.54299908    -0.55600
O888        O  0.07636161  0.79410655  0.53783351    -0.92300
O889        O  0.07800471  0.74960021  0.55961891    -0.90700
O890        O  0.05929156  0.68708538  0.94030319    -0.91100
O891        O  0.04565802  0.74037033  0.91460525    -0.89900
C892        C  0.08424149  0.76502518  0.53691222     1.19200
H893        H  0.00165096  0.67222547  0.99380455     0.35100
H894        H  0.48127412  0.78981083  0.93765373     0.46000
H895        H  0.00827294  0.78570927  0.56896249     0.39500
H896        H  0.36511181  0.75923148  0.51570250     0.36000
H897        H  0.45259731  0.74373882  0.89689429     0.27800
H898        H  0.38615791  0.83821558  0.03137250     0.33700
H899        H  0.36307309  0.83404785  0.58155664     0.39600
H900        H  0.05148537  0.67344264  0.92466075     0.34100
H901        H  0.07632771  0.66262559  0.55803547     0.32900
H902        H  0.04192920  0.70490072  0.60601443     0.34600
H903        H  0.43238433  0.74783062  0.60732279     0.33600
H904        H  0.02715231  0.75315292  0.90101218     0.37600
H905        H  0.04616136  0.80676761  0.92637831     0.30300
H906        H  0.37117453  0.65230121  0.52187189     0.34600
H907        H  0.35947233  0.78447136  0.60610334     0.37400
H908        H  0.08404461  0.66684548  0.52448827     0.30000
H909        H  0.06802940  0.83387563  0.94050824     0.42900
H910        H  0.40809999  0.78896726  0.92114164     0.32900
H911        H  0.44848510  0.70792205  0.89817196     0.40600
H912        H  0.93580033  0.78206109  0.61460615     0.32400
H913        H  0.37390667  0.84029632  0.49196097     0.32500
H914        H  0.35731349  0.66316539  0.49149274     0.32700
Zr915      Zr  0.17694392  0.71106571  0.52663893     2.17500
O916        O  0.13525483  0.70544550  0.57459537    -0.49600
O917        O  0.19822782  0.66087268  0.97008637    -0.72800
O918        O  0.10290780  0.72155443  0.50765574    -0.79600
O919        O  0.27983816  0.66941584  0.55372559    -0.81300
O920        O  0.15930715  0.74643010  0.93072544    -0.77000
O921        O  0.20472824  0.66326257  0.54883691    -0.88600
O922        O  0.25781173  0.67455570  0.93915430    -0.74600
O923        O  0.20982910  0.73748700  0.96641254    -0.84100
O924        O  0.25160006  0.69758191  0.50339687    -0.83700
O925        O  0.17482760  0.76715763  0.53141789    -0.70500
O926        O  0.22269291  0.73656971  0.55605929    -0.82600
Zr927      Zr  0.26821909  0.80473743  0.00324315     2.26400
Zr928      Zr  0.17867037  0.78755948  0.96262843     2.06300
Zr929      Zr  0.29372564  0.72248179  0.53643573     2.10000
Zr930      Zr  0.28305518  0.72458769  0.95517459     1.78800
O931        O  0.28540885  0.73299243  0.58841441    -0.91400
O932        O  0.26162704  0.72691853  0.90521679    -0.39300
O933        O  0.25302933  0.74974386  0.00077950    -0.75900
O934        O  0.26145510  0.78075298  0.95710848    -0.94600
O935        O  0.20731934  0.81186621  0.51846086    -0.87900
O936        O  0.29101084  0.77848723  0.54003823    -0.90700
C937        C  0.22761578  0.65591568  0.94800273     1.03000
C938        C  0.24444084  0.65376635  0.55696985     1.16000
C939        C  0.13648996  0.72649983  0.94406878     1.06700
O940        O  0.14896326  0.80175914  0.91605600    -0.92900
O941        O  0.21011549  0.83369503  0.94309790    -0.88600
O942        O  0.23110857  0.85276511  0.98429751    -0.81800
C943        C  0.21987327  0.85629873  0.95828382     1.13400
O944        O  0.17406608  0.77624599  0.60904883    -0.94800
Zr945      Zr  0.21610234  0.79063415  0.56396212     1.88900
O946        O  0.29041329  0.84622030  0.52719791    -0.71500
O947        O  0.11517681  0.83903773  0.51463896    -0.50800
O948        O  0.14249839  0.81743514  0.58425801    -0.95400
O949        O  0.26955197  0.79453220  0.60143506    -0.52700
O950        O  0.23229511  0.84421319  0.56248883    -0.72000
C951        C  0.26483153  0.85774167  0.54938408     1.00300
O952        O  0.32316535  0.82949943  0.97029699    -0.60800
O953        O  0.36791948  0.70543329  0.55504357    -0.55600
O954        O  0.33449592  0.77023017  0.46872092    -0.92300
O955        O  0.33336369  0.72237193  0.48927542    -0.90700
O956        O  0.35554453  0.69267437  0.95590464    -0.91100
O957        O  0.35049131  0.74625686  0.93205219    -0.89900
C958        C  0.34501675  0.74089352  0.46912165     1.19200
H959        H  0.27472301  0.67469132  0.99687509     0.35100
H960        H  0.27397532  0.79087247  0.94001371     0.46000
H961        H  0.31512430  0.78622557  0.54978182     0.39500
H962        H  0.15352339  0.77341156  0.54740065     0.36000
H963        H  0.28531959  0.71224361  0.89437613     0.27800
H964        H  0.10921575  0.81686570  0.00311799     0.33700
H965        H  0.14914912  0.83881674  0.58888665     0.39600
H966        H  0.35749038  0.68065267  0.93754833     0.34100
H967        H  0.37004010  0.71868691  0.57207244     0.32900
H968        H  0.28757554  0.71221964  0.59773329     0.34600
H969        H  0.25111955  0.79351180  0.62031720     0.33600
H970        H  0.34150200  0.75299798  0.91262088     0.37600
H971        H  0.31103287  0.82984360  0.95096399     0.30300
H972        H  0.14775634  0.72023460  0.58740463     0.34600
H973        H  0.19118970  0.75655300  0.61512866     0.37400
H974        H  0.36377732  0.68489715  0.56399629     0.30000
H975        H  0.31869865  0.85181708  0.97589190     0.42900
H976        H  0.17640625  0.79940815  0.90177271     0.32900
H977        H  0.23255487  0.71704308  0.90496174     0.40600
H978        H  0.27804368  0.81615593  0.60059140     0.32400
H979        H  0.12609424  0.85811810  0.50567650     0.32500
H980        H  0.14468187  0.68470558  0.58271727     0.32700
C981        C  0.21874498  0.88667273  0.94537984    -0.11600
C982        C  0.21768875  0.91171537  0.93357749    -0.13100
C983        C  0.22355270  0.62841455  0.93152319    -0.11600
C984        C  0.21680526  0.60449923  0.91995131    -0.13100
C985        C  0.46429784  0.88556986  0.94204234    -0.11600
C986        C  0.46611782  0.90974316  0.92881536    -0.13100
C987        C  0.43547515  0.60038238  0.93562385    -0.11600
C988        C  0.43191595  0.62452135  0.94958564    -0.13100
C989        C  0.36109018  0.50239236  0.87410262    -0.11600
C990        C  0.31811714  0.50024184  0.87333612    -0.13100
C991        C  0.06640893  0.50588036  0.87877271    -0.11600
C992        C  0.11011601  0.50620690  0.87865291    -0.13100
C993        C  0.27195382  0.88746294  0.56135466    -0.11600
C994        C  0.26906134  0.91093268  0.57593103    -0.13100
C995        C  0.24518697  0.59950404  0.58411770    -0.09800
C996        C  0.24803723  0.62383400  0.57119169    -0.13100
C997        C  0.22009652  0.50282894  0.74378970    -0.11600
C998        C  0.21808271  0.50289524  0.77002173    -0.13100
C999        C  0.98337859  0.87703099  0.57983446    -0.11600
C1000       C  0.98988929  0.90073558  0.59231700    -0.13100
C1001       C  0.47237933  0.62475623  0.57406299    -0.11600
C1002       C  0.47695087  0.59990457  0.58645549    -0.13100
C1003       C  0.34212142  0.00297141  0.64245944    -0.11600
C1004       C  0.38678400  0.50198665  0.64160032    -0.13100
C1005       C  0.13770839  0.50159288  0.63500914    -0.11600
C1006       C  0.09258724  0.00116234  0.63628506    -0.13100
C1007       C  0.48641295  0.50008352  0.74445953    -0.11600
C1008       C  0.48369797  0.50033793  0.77077147    -0.13100
C1009       C  0.53142668  0.50302008  0.14016942     0.31700
C1010       C  0.94078919  0.99951989  0.13445355     0.31700
C1011       C  0.50258345  0.49956858  0.16928864    -0.04500
C1012       C  0.51291643  0.02628670  0.12397894    -0.05300
C1013       C  0.51488594  0.47679166  0.12206239    -0.05100
C1014       C  0.96001675  0.99763937  0.16491905    -0.04500
C1015       C  0.96401765  0.02819547  0.12156901    -0.05300
C1016       C  0.96736896  0.47603531  0.12059165    -0.05100
C1017       C  0.94131834  0.99867338  0.19350944    -0.30500
N1018       N  0.97633258  0.99894211  0.21122919     0.16000
C1019       C  0.51222915  0.49892449  0.19789336    -0.30500
H1020       H  0.54587765  0.49985495  0.20597709     0.17900
C1021       C  0.95071889  0.05513309  0.10653253    -0.29500
N1022       N  0.98895043  0.07012139  0.09922407     0.14700
C1023       C  0.52678231  0.05263622  0.11066062    -0.29500
C1024       C  0.96231248  0.45184944  0.10197684    -0.29800
N1025       N  0.50293435  0.43825597  0.09268090     0.15200
H1026       H  0.92991530  0.44467777  0.09594108     0.17800
C1027       C  0.53617254  0.45299328  0.10419893    -0.29800
H1028       H  0.57308395  0.44688512  0.09984161     0.17800
H1029       H  0.56188078  0.05886573  0.10757955     0.17800
H1030       H  0.90491859  0.99989947  0.20084733     0.17900
H1031       H  0.91608444  0.06293859  0.10087785     0.17800
C1032       C  0.78135198  0.50142947  0.13900034     0.31700
C1033       C  0.68930587  0.00031747  0.13996943     0.31700
C1034       C  0.75487522  0.50394860  0.16960696    -0.04500
C1035       C  0.76003195  0.02620058  0.12120829    -0.05300
C1036       C  0.75893407  0.47350095  0.12628530    -0.05100
C1037       C  0.71293721  0.00102431  0.16871586    -0.04500
C1038       C  0.71101069  0.02677622  0.12326898    -0.05300
C1039       C  0.70976306  0.47608597  0.12811799    -0.05100
C1040       C  0.69830492  0.00257414  0.19782567    -0.30500
N1041       N  0.73602210  0.00270978  0.21319206     0.16000
C1042       C  0.76723750  0.50506876  0.19768573    -0.30500
H1043       H  0.80208242  0.50429920  0.20434277     0.17900
C1044       C  0.69348770  0.05417758  0.11127153    -0.29500
N1045       N  0.72935382  0.07022229  0.10206161     0.14700
C1046       C  0.76994117  0.05373272  0.10789255    -0.29500
C1047       C  0.69631396  0.44924109  0.11769180    -0.29800
N1048       N  0.73454501  0.42991811  0.10961497     0.15200
H1049       H  0.66106481  0.44380930  0.11655779     0.17800
C1050       C  0.77303088  0.44404247  0.11451512    -0.29800
H1051       H  0.80834602  0.43352798  0.11033046     0.17800
H1052       H  0.80387501  0.06164959  0.10362477     0.17800
H1053       H  0.66286632  0.00356509  0.20718273     0.17900
H1054       H  0.65725468  0.06241603  0.11023731     0.17800
C1055       C  0.01371045  0.00199153  0.37287799     0.31700
C1056       C  0.91486702  0.00668117  0.37587328     0.31700
C1057       C  0.99075799  0.00128737  0.34372961    -0.04500
C1058       C  0.98750278  0.47942571  0.39425320    -0.05300
C1059       C  0.98700232  0.03122332  0.38652354    -0.05100
C1060       C  0.94152692  0.00348325  0.34530865    -0.04500
C1061       C  0.93837437  0.48077253  0.39587644    -0.05300
C1062       C  0.93790798  0.03445739  0.38823792    -0.05100
C1063       C  0.92919674  0.00377645  0.31710675    -0.30500
N1064       N  0.96833416  0.00175958  0.29877008     0.16000
C1065       C  0.00586073  0.00030877  0.31456867    -0.30500
H1066       H  0.54161875  0.99784832  0.30600288     0.17900
C1067       C  0.92653691  0.45575417  0.41268699    -0.29500
N1068       N  0.96592037  0.43970907  0.42113121     0.14700
C1069       C  0.00305803  0.45382335  0.41011400    -0.29500
C1070       C  0.92475800  0.06433575  0.39928504    -0.29800
N1071       N  0.96386150  0.07791787  0.40379025     0.15200
H1072       H  0.88975430  0.07548002  0.40323577     0.17800
C1073       C  0.00143895  0.05797091  0.39622096    -0.29800
H1074       H  0.03694837  0.06292387  0.39723035     0.17800
H1075       H  0.53824338  0.44413039  0.41255421     0.17800
H1076       H  0.89430205  0.00571172  0.31039457     0.17900
H1077       H  0.89195627  0.44911323  0.41761556     0.17800
C1078       C  0.76152934  0.00803333  0.37697261     0.31700
C1079       C  0.66382486  0.00802806  0.37474654     0.31700
C1080       C  0.74265062  0.00710804  0.34662075    -0.04500
C1081       C  0.73624536  0.48052453  0.39203454    -0.05300
C1082       C  0.72977822  0.03634726  0.39075333    -0.05100
C1083       C  0.69411575  0.00699476  0.34557607    -0.04500
C1084       C  0.68764987  0.48092106  0.39109754    -0.05300
C1085       C  0.68100963  0.03644531  0.38983143    -0.05100
C1086       C  0.68587725  0.00597208  0.31670272    -0.30500
N1087       N  0.72690535  0.00561586  0.30043732     0.16000
C1088       C  0.76164795  0.00627109  0.31821137    -0.30500
H1089       H  0.79796320  0.00618300  0.31099088     0.17900
C1090       C  0.67460020  0.45438943  0.40427440    -0.29500
N1091       N  0.71279204  0.43794187  0.41327355     0.14700
C1092       C  0.75056347  0.45330558  0.40612497    -0.29500
C1093       C  0.66078124  0.06222637  0.40585876    -0.29800
N1094       N  0.69489998  0.07733597  0.41616551     0.15200
H1095       H  0.62403990  0.06893515  0.41037010     0.17800
C1096       C  0.73665601  0.06187856  0.40708728    -0.29800
H1097       H  0.76973543  0.06824437  0.41274090     0.17800
H1098       H  0.78548031  0.44554660  0.41128161     0.17800
H1099       H  0.65249465  0.00561733  0.30811029     0.17900
H1100       H  0.63973527  0.44777553  0.40766456     0.17800
Zr1101     Zr  0.92354676  0.21184762  0.02878489     2.17500
O1102       O  0.88639906  0.20864044  0.07825822    -0.49600
O1103       O  0.96301084  0.15769894  0.46920259    -0.72800
O1104       O  0.84699380  0.22384036  0.01406382    -0.79600
O1105       O  0.52597062  0.16769349  0.05572748    -0.81300
O1106       O  0.90825332  0.24948558  0.42854629    -0.77000
O1107       O  0.94893847  0.16331401  0.05034569    -0.88600
O1108       O  0.00878305  0.17807672  0.43367980    -0.74600
O1109       O  0.96092440  0.23088612  0.46007995    -0.84100
O1110       O  0.99689816  0.19765048  0.00411254    -0.83700
O1111       O  0.92257585  0.26772392  0.03414931    -0.70500
O1112       O  0.97206677  0.23591864  0.05720457    -0.82600
Zr1113     Zr  0.52416390  0.30177514  0.50392512     2.26400
Zr1114     Zr  0.93243570  0.28507668  0.46413462     2.06300
Zr1115     Zr  0.54145876  0.22055670  0.03806799     2.10000
Zr1116     Zr  0.03864253  0.22157634  0.45748649     1.78800
O1117       O  0.52978086  0.23515847  0.08907092    -0.91400
O1118       O  0.02175721  0.22639824  0.40675914    -0.39300
O1119       O  0.50910690  0.24725468  0.49967715    -0.75900
O1120       O  0.01557086  0.27766514  0.45974658    -0.94600
O1121       O  0.95850220  0.31095770  0.02001293    -0.87900
O1122       O  0.53824704  0.27645928  0.04242591    -0.90700
C1123       C  0.98399582  0.15697236  0.44389659     1.03000
C1124       C  0.98900154  0.15301662  0.05744033     1.16000
C1125       C  0.88568028  0.22932963  0.44155851     1.06700
O1126       O  0.90074978  0.30450434  0.41952178    -0.92900
O1127       O  0.96236881  0.33261540  0.44572490    -0.88600
O1128       O  0.98679226  0.35095986  0.48637089    -0.81800
C1129       C  0.97336094  0.35502316  0.46082474     1.13400
O1130       O  0.92994710  0.27424691  0.11137496    -0.94800
Zr1131     Zr  0.96786939  0.28982169  0.06533029     1.88900
O1132       O  0.53649606  0.34475645  0.02836430    -0.71500
O1133       O  0.86728502  0.33973345  0.01952780    -0.50800
O1134       O  0.89616625  0.31733459  0.08766796    -0.95400
O1135       O  0.02134168  0.29626709  0.10215028    -0.52700
O1136       O  0.98118994  0.34390089  0.06174106    -0.72000
C1137       C  0.01329076  0.35764747  0.04839364     1.00300
O1138       O  0.57676376  0.32589375  0.46852717    -0.60800
O1139       O  0.61349645  0.20246429  0.05899586    -0.55600
O1140       O  0.58619420  0.26807236  0.97088709    -0.92300
O1141       O  0.58434829  0.22020789  0.99151863    -0.90700
O1142       O  0.60220530  0.18216558  0.45834484    -0.91100
O1143       O  0.60929377  0.23981527  0.43266213    -0.89900
C1144       C  0.59708756  0.23867444  0.97147349     1.19200
H1145       H  0.52774252  0.17038813  0.49517357     0.35100
H1146       H  0.02802625  0.28783876  0.44267339     0.46000
H1147       H  0.56215294  0.28425284  0.05237039     0.39500
H1148       H  0.90171606  0.27418150  0.05026403     0.36000
H1149       H  0.00960029  0.24852605  0.40448277     0.27800
H1150       H  0.86248963  0.31231765  0.50604243     0.33700
H1151       H  0.90566211  0.33576383  0.09738919     0.39600
H1152       H  0.60126863  0.16859556  0.44122867     0.34100
H1153       H  0.61461144  0.21586936  0.07610464     0.32900
H1154       H  0.53086004  0.21518320  0.09978322     0.34600
H1155       H  0.00165489  0.30105143  0.12040530     0.33600
H1156       H  0.60909165  0.23608697  0.41156999     0.37600
H1157       H  0.56366859  0.32554998  0.44952710     0.30300
H1158       H  0.89297896  0.22778382  0.08812083     0.34600
H1159       H  0.94886167  0.25512974  0.11712685     0.37400
H1160       H  0.60801995  0.18207439  0.06784387     0.30000
H1161       H  0.57264448  0.34843316  0.47325700     0.42900
H1162       H  0.92729070  0.30274970  0.40454624     0.32900
H1163       H  0.05224016  0.22424827  0.39538145     0.40600
H1164       H  0.51649298  0.31797640  0.10492986     0.32400
H1165       H  0.87909593  0.35870930  0.01091959     0.32500
H1166       H  0.90382974  0.19178311  0.08868628     0.32700
Zr1167     Zr  0.67760846  0.20111120  0.00839113     2.17500
O1168       O  0.61145576  0.16956581  0.01350083    -0.49600
O1169       O  0.68201750  0.16347276  0.48839503    -0.72800
O1170       O  0.65386936  0.20092585  0.95801063    -0.79600
O1171       O  0.73509902  0.17715033  0.07662376    -0.81300
O1172       O  0.59667123  0.26645382  0.48216352    -0.77000
O1173       O  0.69612828  0.15832002  0.04159932    -0.88600
O1174       O  0.71887194  0.17566681  0.44529941    -0.74600
O1175       O  0.67794510  0.23651963  0.47515100    -0.84100
O1176       O  0.76017685  0.19529699  0.00833445    -0.83700
O1177       O  0.64517702  0.25628641  0.01509525    -0.70500
O1178       O  0.68936435  0.22878022  0.05038147    -0.82600
Zr1179     Zr  0.78249797  0.30266115  0.49003579     2.26400
Zr1180     Zr  0.66431931  0.29302870  0.48266489     2.06300
Zr1181     Zr  0.76668163  0.22101686  0.05328351     2.10000
Zr1182     Zr  0.75186673  0.22415179  0.45202424     1.78800
O1183       O  0.76058585  0.21826411  0.10615848    -0.91400
O1184       O  0.70209221  0.22398770  0.41228004    -0.39300
O1185       O  0.76035739  0.25126748  0.49596635    -0.75900
O1186       O  0.73694802  0.28073436  0.45658571    -0.94600
O1187       O  0.68664643  0.30473178  0.01510914    -0.87900
O1188       O  0.74405313  0.27730877  0.05700281    -0.90700
C1189       C  0.69677838  0.15731662  0.46170231     1.03000
C1190       C  0.71589271  0.15551501  0.06529205     1.16000
C1191       C  0.59457267  0.24820043  0.50341202     1.06700
O1192       O  0.64144748  0.29841996  0.43289658    -0.92900
O1193       O  0.67960669  0.33925713  0.45499267    -0.88600
O1194       O  0.74494136  0.35113517  0.47308727    -0.81800
C1195       C  0.71100632  0.35732469  0.45764444     1.13400
O1196       O  0.60117472  0.26991397  0.09303821    -0.94800
Zr1197     Zr  0.66457975  0.28176355  0.05856334     1.88900
O1198       O  0.74645386  0.34656645  0.04562573    -0.71500
O1199       O  0.60975423  0.31877665  0.99338762    -0.50800
O1200       O  0.60304565  0.32453105  0.06655816    -0.95400
O1201       O  0.69132893  0.26451723  0.10530280    -0.52700
O1202       O  0.69126559  0.32994001  0.07762956    -0.72000
C1203       C  0.72034453  0.34930048  0.06908974     1.00300
O1204       O  0.81883592  0.32320025  0.44494927    -0.60800
O1205       O  0.83194216  0.17974559  0.04924183    -0.55600
O1206       O  0.82229777  0.29714137  0.04336058    -0.92300
O1207       O  0.82368664  0.25267791  0.06536052    -0.90700
O1208       O  0.81873966  0.18666680  0.43857110    -0.91100
O1209       O  0.80038976  0.24555476  0.41286123    -0.89900
C1210       C  0.83034636  0.26806729  0.04268270     1.19200
H1211       H  0.76804594  0.17401499  0.49442227     0.35100
H1212       H  0.73921896  0.29074800  0.43789587     0.46000
H1213       H  0.75316651  0.28667547  0.07431919     0.39500
H1214       H  0.61229033  0.25792986  0.01872879     0.36000
H1215       H  0.70359674  0.24464508  0.40306289     0.27800
H1216       H  0.63454638  0.33555924  0.53078150     0.33700
H1217       H  0.61454501  0.34263207  0.05607396     0.39600
H1218       H  0.81097088  0.17643467  0.42074758     0.34100
H1219       H  0.83097041  0.17008864  0.06874482     0.32900
H1220       H  0.78038271  0.23377906  0.11256230     0.34600
H1221       H  0.67416960  0.24672149  0.11168678     0.33600
H1222       H  0.79787598  0.23234736  0.39572205     0.37600
H1223       H  0.79669486  0.32274524  0.42989442     0.30300
H1224       H  0.62130710  0.15054103  0.02439179     0.34600
H1225       H  0.60126742  0.28445070  0.10955645     0.37400
H1226       H  0.82465709  0.16281395  0.03666715     0.30000
H1227       H  0.82183325  0.34563005  0.44785117     0.42900
H1228       H  0.66954957  0.29363332  0.41953072     0.32900
H1229       H  0.71909678  0.20923500  0.39778517     0.40600
H1230       H  0.68025236  0.28156254  0.11926530     0.32400
H1231       H  0.62149049  0.33937478  0.99507415     0.32500
H1232       H  0.60900356  0.16153106  0.99371602     0.32700
C1233       C  0.70956223  0.38602981  0.44195725    -0.11600
C1234       C  0.71184135  0.40997484  0.42867779    -0.13100
C1235       C  0.68911381  0.12785665  0.44854416    -0.11600
C1236       C  0.68921733  0.10425585  0.43410672    -0.13100
C1237       C  0.97082254  0.38595094  0.44823775    -0.11600
C1238       C  0.96838237  0.41112498  0.43624058    -0.13100
C1239       C  0.96789962  0.10745164  0.41510720    -0.11600
C1240       C  0.97676945  0.13109597  0.42618015    -0.13100
C1241       C  0.85991137  0.00816259  0.37708340    -0.11600
C1242       C  0.81607296  0.00817408  0.37749486    -0.13100
C1243       C  0.56739434  0.00300599  0.37264767    -0.11600
C1244       C  0.61019837  0.00584748  0.37342463    -0.13100
C1245       C  0.72534923  0.37603695  0.08660418    -0.11600
C1246       C  0.73202846  0.40023448  0.09784852    -0.13100
C1247       C  0.72420973  0.10010923  0.08991530    -0.09800
C1248       C  0.71881458  0.12570431  0.07930344    -0.13100
C1249       C  0.73476150  0.00390004  0.24365364    -0.11600
C1250       C  0.73210228  0.00475712  0.26991074    -0.13100
C1251       C  0.51440949  0.38739275  0.06089291    -0.11600
C1252       C  0.51082485  0.41158376  0.07462919    -0.13100
C1253       C  0.99258090  0.12279503  0.07109049    -0.11600
C1254       C  0.99056574  0.09823969  0.08373345    -0.13100
C1255       C  0.83631501  0.50064650  0.13773203    -0.11600
C1256       C  0.88632703  0.99918929  0.13381906    -0.13100
C1257       C  0.63523628  0.99998523  0.14051317    -0.11600
C1258       C  0.58514385  0.50433352  0.14150926    -0.13100
C1259       C  0.97173434  0.00037240  0.24184475    -0.11600
C1260       C  0.96972884  0.00122958  0.26817844    -0.13100
C1261       C  0.53940226  0.49971160  0.63638477     0.31700
C1262       C  0.93909557  0.00309886  0.64219670     0.31700
C1263       C  0.51364783  0.50049649  0.66724913    -0.04500
C1264       C  0.51026315  0.02829641  0.62201114    -0.05300
C1265       C  0.51803293  0.47178346  0.62271784    -0.05100
C1266       C  0.96254751  0.00503100  0.67089939    -0.04500
C1267       C  0.96084918  0.02883359  0.62435680    -0.05300
C1268       C  0.96910876  0.47323034  0.62508235    -0.05100
C1269       C  0.94755310  0.00754639  0.70000419    -0.30500
N1270       N  0.98496422  0.00816978  0.71560258     0.16000
C1271       C  0.52649057  0.49986690  0.69537179    -0.30500
H1272       H  0.56143393  0.49897774  0.70187621     0.17900
C1273       C  0.94342537  0.05426941  0.60914289    -0.29500
N1274       N  0.97926829  0.06922016  0.59772241     0.14700
C1275       C  0.52047104  0.05416512  0.60594775    -0.29500
C1276       C  0.95710002  0.44636324  0.61365685    -0.29800
N1277       N  0.49580264  0.42824169  0.60401034     0.15200
H1278       H  0.92226284  0.44015043  0.61244927     0.17800
C1279       C  0.53338490  0.44313761  0.60948143    -0.29800
H1280       H  0.56909051  0.43367244  0.60467913     0.17800
H1281       H  0.55460172  0.06124537  0.60025401     0.17800
H1282       H  0.91199924  0.00876340  0.70918965     0.17900
H1283       H  0.90723898  0.06160842  0.60680763     0.17800
C1284       C  0.78955730  0.50052420  0.63836963     0.31700
C1285       C  0.69098862  0.00368582  0.63683466     0.31700
C1286       C  0.75974267  0.49669128  0.66716082    -0.04500
C1287       C  0.76370720  0.03116315  0.62596139    -0.05300
C1288       C  0.77267039  0.47529186  0.61929490    -0.05100
C1289       C  0.70943987  0.00174752  0.66758388    -0.04500
C1290       C  0.71518413  0.03219272  0.62382794    -0.05300
C1291       C  0.72413460  0.47553432  0.61785194    -0.05100
C1292       C  0.69028554  0.00163694  0.69607911    -0.30500
N1293       N  0.72500001  0.00100335  0.71414680     0.16000
C1294       C  0.76822618  0.49451283  0.69603727    -0.30500
H1295       H  0.80159300  0.49448938  0.70473186     0.17900
C1296       C  0.70390602  0.05827555  0.60687030    -0.29500
N1297       N  0.74309285  0.07236298  0.59935026     0.14700
C1298       C  0.77934292  0.05602234  0.61085924    -0.29500
C1299       C  0.71812903  0.45213134  0.59861357    -0.29800
N1300       N  0.76045085  0.43806775  0.58857236     0.15200
H1301       H  0.68537155  0.44580059  0.59234993     0.17800
C1302       C  0.79377708  0.45186005  0.60097076    -0.29800
H1303       H  0.83064601  0.44531540  0.59694664     0.17800
H1304       H  0.81495373  0.06117303  0.60749861     0.17800
H1305       H  0.65380928  0.00256231  0.70313337     0.17900
H1306       H  0.67009503  0.06575965  0.59969536     0.17800
C1307       C  0.01047039  0.01045707  0.87993372     0.31700
C1308       C  0.91298697  0.01031898  0.87800637     0.31700
C1309       C  0.99080125  0.01329524  0.84967217    -0.04500
C1310       C  0.98896123  0.47699940  0.89094775    -0.05300
C1311       C  0.97854965  0.03680424  0.89709376    -0.05100
C1312       C  0.94233255  0.01315859  0.84876021    -0.04500
C1313       C  0.94046671  0.47735127  0.88925637    -0.05300
C1314       C  0.92984200  0.03676178  0.89625162    -0.05100
C1315       C  0.93377073  0.01311157  0.81979480    -0.30500
N1316       N  0.97457945  0.01336783  0.80329098     0.16000
C1317       C  0.00944774  0.01339987  0.82111597    -0.30500
H1318       H  0.54775134  0.01134937  0.81330039     0.17900
C1319       C  0.92618410  0.45221761  0.90429898    -0.29500
N1320       N  0.96338943  0.43654616  0.91522779     0.14700
C1321       C  0.00181154  0.45114704  0.90751682    -0.29500
C1322       C  0.90933520  0.06091231  0.91441882    -0.29800
N1323       N  0.94308861  0.07535631  0.92602920     0.15200
H1324       H  0.87253343  0.06729819  0.91900715     0.17800
C1325       C  0.98504656  0.06088270  0.91562955    -0.29800
H1326       H  0.01809589  0.06723605  0.92134335     0.17800
H1327       H  0.53770876  0.44354311  0.91411398     0.17800
H1328       H  0.90044167  0.01200643  0.81133477     0.17900
H1329       H  0.89094466  0.44637146  0.90802669     0.17800
C1330       C  0.76281110  0.00456164  0.87566576     0.31700
C1331       C  0.66419870  0.00875163  0.87895173     0.31700
C1332       C  0.73966282  0.00470112  0.84656403    -0.04500
C1333       C  0.73963387  0.47602880  0.89261354    -0.05300
C1334       C  0.73592394  0.03322335  0.89036737    -0.05100
C1335       C  0.69051856  0.00666069  0.84830122    -0.04500
C1336       C  0.69048348  0.47824890  0.89407916    -0.05300
C1337       C  0.68684122  0.03609873  0.89236495    -0.05100
C1338       C  0.67792680  0.00631977  0.82018071    -0.30500
N1339       N  0.71689736  0.00422465  0.80170355     0.16000
C1340       C  0.75455001  0.00327831  0.81736516    -0.30500
H1341       H  0.79013294  0.00156282  0.80818030     0.17900
C1342       C  0.67713123  0.45354401  0.91069162    -0.29500
N1343       N  0.71560252  0.43658244  0.91924682     0.14700
C1344       C  0.75373304  0.44990724  0.90843986    -0.29500
C1345       C  0.67322357  0.06445468  0.90642330    -0.29800
N1346       N  0.71208819  0.07761993  0.91229144     0.15200
H1347       H  0.63805366  0.07471273  0.91183227     0.17800
C1348       C  0.74994176  0.05877928  0.90274794    -0.29800
H1349       H  0.78533847  0.06352791  0.90461236     0.17800
H1350       H  0.78914096  0.44077883  0.91121008     0.17800
H1351       H  0.64298628  0.00748374  0.81362582     0.17900
H1352       H  0.64202735  0.44785141  0.91557993     0.17800
Zr1353     Zr  0.93122322  0.20119269  0.49927235     2.17500
O1354       O  0.86384603  0.17072672  0.50315360    -0.49600
O1355       O  0.92416256  0.16383684  0.99825776    -0.72800
O1356       O  0.90848876  0.20409661  0.44861491    -0.79600
O1357       O  0.49960992  0.17047442  0.56380123    -0.81300
O1358       O  0.83874460  0.26882002  0.99257817    -0.77000
O1359       O  0.94777254  0.15618456  0.53129982    -0.88600
O1360       O  0.95890190  0.17510604  0.95423705    -0.74600
O1361       O  0.91609885  0.23895913  0.98299408    -0.84100
O1362       O  0.01318028  0.19301203  0.49950179    -0.83700
O1363       O  0.90239803  0.25697865  0.50732817    -0.70500
O1364       O  0.94388287  0.22821353  0.54162375    -0.82600
Zr1365     Zr  0.52622605  0.30081421  0.99622095     2.26400
Zr1366     Zr  0.90646862  0.29570565  0.99023785     2.06300
Zr1367     Zr  0.52834843  0.21586402  0.54172590     2.10000
Zr1368     Zr  0.98924817  0.22497033  0.95890378     1.78800
O1369       O  0.52216595  0.21070026  0.59433273    -0.91400
O1370       O  0.93744481  0.22836946  0.91996544    -0.39300
O1371       O  0.51411758  0.24922870  0.00014375    -0.75900
O1372       O  0.97771116  0.28151724  0.96312856    -0.94600
O1373       O  0.94626755  0.30460236  0.50838762    -0.87900
O1374       O  0.50778533  0.27230556  0.54842377    -0.90700
C1375       C  0.93907834  0.15654076  0.97165348     1.03000
C1376       C  0.96806545  0.15181998  0.55480237     1.16000
C1377       C  0.83416018  0.25265241  0.01523277     1.06700
O1378       O  0.88486116  0.30414673  0.94054572    -0.92900
O1379       O  0.92306929  0.34195100  0.96255460    -0.88600
O1380       O  0.99201711  0.35117555  0.97760851    -0.81800
C1381       C  0.95668088  0.35865747  0.96362338     1.13400
O1382       O  0.85912081  0.26985710  0.58571250    -0.94800
Zr1383     Zr  0.92250206  0.28164843  0.55127658     1.88900
O1384       O  0.51440646  0.34239738  0.53954271    -0.71500
O1385       O  0.86883141  0.32023768  0.48628304    -0.50800
O1386       O  0.86262679  0.32577764  0.55661642    -0.95400
O1387       O  0.94689707  0.26768487  0.59952230    -0.52700
O1388       O  0.95189540  0.32965387  0.56976463    -0.72000
C1389       C  0.98411903  0.34737722  0.56271862     1.00300
O1390       O  0.56291091  0.32047178  0.95077026    -0.60800
O1391       O  0.59432414  0.17538907  0.53307247    -0.55600
O1392       O  0.58499921  0.29061191  0.53395348    -0.92300
O1393       O  0.58787810  0.24492966  0.55348118    -0.90700
O1394       O  0.56291218  0.18458369  0.94691729    -0.91100
O1395       O  0.54738842  0.24255752  0.92045472    -0.89900
C1396       C  0.59251566  0.26160294  0.53150196     1.19200
H1397       H  0.51015696  0.17346009  0.00241056     0.35100
H1398       H  0.97928303  0.29129664  0.94430504     0.46000
H1399       H  0.51848381  0.28075437  0.56570234     0.39500
H1400       H  0.86950782  0.25939263  0.51058813     0.36000
H1401       H  0.95015148  0.24333921  0.90594742     0.27800
H1402       H  0.88030920  0.33812583  0.03859428     0.33700
H1403       H  0.86396624  0.33455290  0.57624815     0.39600
H1404       H  0.55008197  0.16555903  0.94076222     0.34100
H1405       H  0.59078513  0.16053692  0.54931511     0.32900
H1406       H  0.55377850  0.21252262  0.60002142     0.34600
H1407       H  0.92998598  0.25006878  0.60671943     0.33600
H1408       H  0.54718308  0.22784534  0.90409875     0.37600
H1409       H  0.54101388  0.31995952  0.93558582     0.30300
H1410       H  0.87294933  0.15112062  0.51338836     0.34600
H1411       H  0.85756552  0.28555421  0.60142802     0.37400
H1412       H  0.59085424  0.16294623  0.51568146     0.30000
H1413       H  0.56682986  0.34284610  0.95311535     0.42900
H1414       H  0.90610909  0.28943590  0.92812424     0.32900
H1415       H  0.94320874  0.20807908  0.90966945     0.40600
H1416       H  0.44664540  0.27979554  0.61263618     0.32400
H1417       H  0.88123122  0.34047246  0.48884457     0.32500
H1418       H  0.86144982  0.16354156  0.48307785     0.32700
Zr1419     Zr  0.68392661  0.20894604  0.52069820     2.17500
O1420       O  0.64337429  0.20048534  0.56855151    -0.49600
O1421       O  0.71175279  0.15644919  0.98087708    -0.72800
O1422       O  0.61131896  0.22026653  0.49999525    -0.79600
O1423       O  0.78416804  0.16780091  0.54924596    -0.81300
O1424       O  0.65328327  0.24568932  0.93667841    -0.77000
O1425       O  0.71129529  0.15969574  0.54038659    -0.88600
O1426       O  0.75487982  0.17703286  0.94420240    -0.74600
O1427       O  0.70508580  0.23058347  0.96848599    -0.84100
O1428       O  0.75849907  0.19602553  0.49709715    -0.83700
O1429       O  0.68137327  0.26490991  0.52660363    -0.70500
O1430       O  0.72957407  0.23395845  0.55054087    -0.82600
Zr1431     Zr  0.76268051  0.30481622  0.01169717     2.26400
Zr1432     Zr  0.67371582  0.28409493  0.97111465     2.06300
Zr1433     Zr  0.80032013  0.22039552  0.53049477     2.10000
Zr1434     Zr  0.78259500  0.22317742  0.96536557     1.78800
O1435       O  0.79069343  0.23508651  0.58140666    -0.91400
O1436       O  0.76305447  0.22180812  0.91516085    -0.39300
O1437       O  0.74983432  0.24977562  0.00922730    -0.75900
O1438       O  0.75656151  0.27879365  0.96662236    -0.94600
O1439       O  0.71314975  0.30964421  0.51415181    -0.87900
O1440       O  0.79729516  0.27646189  0.53518673    -0.90700
C1441       C  0.73164904  0.15549199  0.95530193     1.03000
C1442       C  0.74957747  0.15125775  0.55091859     1.16000
C1443       C  0.63090281  0.22576203  0.95014866     1.06700
O1444       O  0.64269479  0.30096119  0.92553790    -0.92900
O1445       O  0.70168968  0.33134497  0.95019784    -0.88600
O1446       O  0.72848659  0.35208735  0.98902506    -0.81800
C1447       C  0.71483855  0.35441048  0.96341012     1.13400
O1448       O  0.68147902  0.26902193  0.60305734    -0.94800
Zr1449     Zr  0.72256176  0.28799277  0.55943018     1.88900
O1450       O  0.79330962  0.34644303  0.52195989    -0.71500
O1451       O  0.62266071  0.33677725  0.51138247    -0.50800
O1452       O  0.64980261  0.31582291  0.57966246    -0.95400
O1453       O  0.77083553  0.29590546  0.59896057    -0.52700
O1454       O  0.73814568  0.34188408  0.55865239    -0.72000
C1455       C  0.76799226  0.35706141  0.54463200     1.00300
O1456       O  0.81863273  0.32780282  0.97801319    -0.60800
O1457       O  0.87175959  0.19989643  0.55074841    -0.55600
O1458       O  0.84115414  0.27088474  0.46340605    -0.92300
O1459       O  0.84013085  0.22266639  0.48315592    -0.90700
O1460       O  0.85028622  0.18712820  0.97052270    -0.91100
O1461       O  0.84877915  0.24516578  0.94116507    -0.89900
C1462       C  0.85191830  0.24158849  0.46332876     1.19200
H1463       H  0.77272578  0.17370860  0.00754263     0.35100
H1464       H  0.76826485  0.28887998  0.94929574     0.46000
H1465       H  0.82118354  0.28431536  0.54504442     0.39500
H1466       H  0.66076142  0.27093048  0.54311478     0.36000
H1467       H  0.75489641  0.24392112  0.91005007     0.27800
H1468       H  0.60462438  0.31132875  0.01345171     0.33700
H1469       H  0.65897500  0.33270043  0.59170247     0.39600
H1470       H  0.84591532  0.16936062  0.95791181     0.34100
H1471       H  0.87312839  0.21236147  0.56848409     0.32900
H1472       H  0.79041835  0.21520283  0.59219860     0.34600
H1473       H  0.76176690  0.28176419  0.61486004     0.33600
H1474       H  0.83694282  0.25583641  0.92384743     0.37600
H1475       H  0.80683743  0.32727912  0.95862476     0.30300
H1476       H  0.65307513  0.21644059  0.58137926     0.34600
H1477       H  0.69983458  0.24939976  0.60813310     0.37400
H1478       H  0.86578653  0.17916492  0.55859923     0.30000
H1479       H  0.81458511  0.35038346  0.98257710     0.42900
H1480       H  0.66921417  0.29787394  0.91059556     0.32900
H1481       H  0.79277410  0.21562552  0.90362783     0.40600
H1482       H  0.75975779  0.31696603  0.60675309     0.32400
H1483       H  0.63424313  0.35592709  0.50300703     0.32500
H1484       H  0.65603035  0.18051653  0.57684548     0.32700
C1485       C  0.71518943  0.38410132  0.94845398    -0.11600
C1486       C  0.71571169  0.40850408  0.93517766    -0.13100
C1487       C  0.72439172  0.12918122  0.93808361    -0.11600
C1488       C  0.71570076  0.10603359  0.92602100    -0.13100
C1489       C  0.95660130  0.38708862  0.94736274    -0.11600
C1490       C  0.96066120  0.41009640  0.93280826    -0.13100
C1491       C  0.93652104  0.10187462  0.94484685    -0.11600
C1492       C  0.93426782  0.12573833  0.95949210    -0.13100
C1493       C  0.85955417  0.00800530  0.87650740    -0.11600
C1494       C  0.81691303  0.00509216  0.87533638    -0.13100
C1495       C  0.56584220  0.00981330  0.88001419    -0.11600
C1496       C  0.60949275  0.00993487  0.88002740    -0.13100
C1497       C  0.77213967  0.38775603  0.55601558    -0.11600
C1498       C  0.76822553  0.41175396  0.57006279    -0.13100
C1499       C  0.74732296  0.09885005  0.58149719    -0.09800
C1500       C  0.75176509  0.12203186  0.56679759    -0.13100
C1501       C  0.71998621  0.00196649  0.74478879    -0.11600
C1502       C  0.71803144  0.00299467  0.77112839    -0.13100
C1503       C  0.49084433  0.37391457  0.57952989    -0.11600
C1504       C  0.49520373  0.39857721  0.59118570    -0.13100
C1505       C  0.96926500  0.12170396  0.56883693    -0.11600
C1506       C  0.97419331  0.09716530  0.58176032    -0.13100
C1507       C  0.84331329  0.50073198  0.63999141    -0.11600
C1508       C  0.88504901  0.00330107  0.64304719    -0.13100
C1509       C  0.63653138  0.00307057  0.63579027    -0.11600
C1510       C  0.59409819  0.49983058  0.63494377    -0.13100
C1511       C  0.98309452  0.01027481  0.74622209    -0.11600
C1512       C  0.97987581  0.01187059  0.77260930    -0.13100
C1513       C  0.53871314  0.99755855  0.13751133     0.31700
C1514       C  0.93464270  0.50177878  0.13785253     0.31700
C1515       C  0.50905177  0.99563712  0.16654880    -0.04500
C1516       C  0.50394000  0.53180893  0.12764653    -0.05300
C1517       C  0.52155012  0.97110739  0.11989663    -0.05100
C1518       C  0.95452214  0.49878424  0.16809625    -0.04500
C1519       C  0.95644722  0.53138232  0.12604422    -0.05300
C1520       C  0.97260572  0.97267266  0.11816806    -0.05100
C1521       C  0.93657139  0.49695317  0.19664679    -0.30500
N1522       N  0.97196068  0.49631442  0.21414992     0.16000
C1523       C  0.51779827  0.99623072  0.19532398    -0.30500
H1524       H  0.55125884  0.99705201  0.20369583     0.17900
C1525       C  0.94218339  0.55790045  0.11076852    -0.29500
N1526       N  0.97972649  0.57347528  0.10332373     0.14700
C1527       C  0.51602237  0.55794198  0.11305274    -0.29500
C1528       C  0.96631973  0.94918476  0.09904791    -0.29800
N1529       N  0.50881802  0.93258783  0.09050155     0.15200
H1530       H  0.93344888  0.94325603  0.09261184     0.17800
C1531       C  0.54235898  0.94689747  0.10222875    -0.29800
H1532       H  0.57920252  0.94045346  0.09790671     0.17800
H1533       H  0.55074274  0.56449245  0.10851291     0.17800
H1534       H  0.90041973  0.49676723  0.20416645     0.17900
H1535       H  0.90759061  0.56465513  0.10447887     0.17800
C1536       C  0.78786598  0.99847164  0.13581276     0.31700
C1537       C  0.68253837  0.50505609  0.14232716     0.31700
C1538       C  0.76205518  0.00017653  0.16663583    -0.04500
C1539       C  0.75492059  0.52936780  0.12385026    -0.05300
C1540       C  0.76633013  0.97029841  0.12292466    -0.05100
C1541       C  0.70566238  0.50565376  0.17132088    -0.04500
C1542       C  0.70580321  0.53097161  0.12549785    -0.05300
C1543       C  0.71721375  0.97200504  0.12529366    -0.05100
C1544       C  0.69055931  0.50771853  0.20039102    -0.30500
N1545       N  0.72811392  0.50737456  0.21599896     0.16000
C1546       C  0.77486317  0.00127083  0.19463709    -0.30500
H1547       H  0.80977621  0.00102059  0.20106457     0.17900
C1548       C  0.69016311  0.55756418  0.11122449    -0.29500
N1549       N  0.72730077  0.57200913  0.10102471     0.14700
C1550       C  0.76677267  0.55534203  0.10854843    -0.29500
C1551       C  0.70441781  0.94551745  0.11394136    -0.29800
N1552       N  0.74304130  0.92726793  0.10464043     0.15200
H1553       H  0.66937369  0.93972639  0.11264347     0.17800
C1554       C  0.78116168  0.94168266  0.10970003    -0.29800
H1555       H  0.81666050  0.93206002  0.10434379     0.17800
H1556       H  0.80144577  0.56169632  0.10331828     0.17800
H1557       H  0.65494965  0.50944463  0.20953486     0.17900
H1558       H  0.65441170  0.56590593  0.10853783     0.17800
C1559       C  0.01067137  0.50380027  0.37488755     0.31700
C1560       C  0.91204162  0.50688399  0.37832045     0.31700
C1561       C  0.98778902  0.50005218  0.34612768    -0.04500
C1562       C  0.98952167  0.97642394  0.39020893    -0.05300
C1563       C  0.98310039  0.53377447  0.38644919    -0.05100
C1564       C  0.93862105  0.50151128  0.34793683    -0.04500
C1565       C  0.94032209  0.97872665  0.39156603    -0.05300
C1566       C  0.93405172  0.53598867  0.38855522    -0.05100
C1567       C  0.92611534  0.49967980  0.31992530    -0.30500
N1568       N  0.96512486  0.49715285  0.30150281     0.16000
C1569       C  0.00272467  0.49744464  0.31701803    -0.30500
H1570       H  0.53899859  0.49803774  0.30854903     0.17900
C1571       C  0.92705595  0.95309623  0.40690291    -0.29500
N1572       N  0.96562359  0.93564057  0.41478168     0.14700
C1573       C  0.00367292  0.94949531  0.40481625    -0.29500
C1574       C  0.91951088  0.56512759  0.40070473    -0.29800
N1575       N  0.95782194  0.57952011  0.40522373     0.15200
H1576       H  0.88412152  0.57476582  0.40642501     0.17800
C1577       C  0.99624530  0.56070520  0.39665031    -0.29800
H1578       H  0.03139009  0.56600764  0.39853325     0.17800
H1579       H  0.53821847  0.94283151  0.41088972     0.17800
H1580       H  0.89117452  0.50097439  0.31334528     0.17900
H1581       H  0.89195774  0.94732029  0.41161306     0.17800
C1582       C  0.75887072  0.50920500  0.37923793     0.31700
C1583       C  0.66107194  0.50939684  0.37786562     0.31700
C1584       C  0.73879216  0.51141171  0.34909310    -0.04500
C1585       C  0.73796658  0.98076462  0.39222165    -0.05300
C1586       C  0.72737961  0.53599976  0.39578604    -0.05100
C1587       C  0.69013094  0.51146836  0.34858362    -0.04500
C1588       C  0.68941654  0.98114450  0.39084886    -0.05300
C1589       C  0.67855372  0.53617626  0.39521920    -0.05100
C1590       C  0.68067053  0.51159317  0.31993252    -0.30500
N1591       N  0.72108322  0.51170307  0.30316472     0.16000
C1592       C  0.75667086  0.51151809  0.32044123    -0.30500
H1593       H  0.79287663  0.51075018  0.31272159     0.17900
C1594       C  0.67541825  0.95588473  0.40587037    -0.29500
N1595       N  0.71292957  0.94002229  0.41632884     0.14700
C1596       C  0.75121820  0.95468125  0.40838464    -0.29500
C1597       C  0.65863870  0.56160015  0.41184085    -0.29800
N1598       N  0.69291123  0.57649090  0.42224177     0.15200
H1599       H  0.62195254  0.56873521  0.41600577     0.17800
C1600       C  0.73458102  0.56116821  0.41261315    -0.29800
H1601       H  0.76785728  0.56788408  0.41749108     0.17800
H1602       H  0.78594020  0.94693703  0.41391386     0.17800
H1603       H  0.64699250  0.51090349  0.31182506     0.17900
H1604       H  0.64044259  0.94941880  0.40897758     0.17800
Zr1605     Zr  0.92210155  0.70933520  0.02150579     2.17500
O1606       O  0.88882129  0.70580855  0.07217502    -0.49600
O1607       O  0.95890851  0.65649756  0.47573992    -0.72800
O1608       O  0.84654693  0.72282610  0.00672868    -0.79600
O1609       O  0.51362113  0.66580492  0.05205728    -0.81300
O1610       O  0.90195268  0.74557813  0.43331164    -0.77000
O1611       O  0.94555828  0.65980601  0.04216442    -0.88600
O1612       O  0.00080316  0.67739576  0.43869483    -0.74600
O1613       O  0.95533336  0.72897328  0.46423449    -0.84100
O1614       O  0.99333408  0.69434572  0.99598409    -0.83700
O1615       O  0.92604611  0.76478839  0.02694819    -0.70500
O1616       O  0.97280032  0.73138246  0.04926764    -0.82600
Zr1617     Zr  0.51728249  0.80438302  0.50522362     2.26400
Zr1618     Zr  0.92577187  0.78307385  0.46704754     2.06300
Zr1619     Zr  0.53859789  0.71225325  0.02657362     2.10000
Zr1620     Zr  0.03324997  0.72058691  0.46109666     1.78800
O1621       O  0.55560412  0.71311923  0.07782529    -0.91400
O1622       O  0.02122065  0.72779142  0.40976217    -0.39300
O1623       O  0.50323602  0.74950620  0.50248023    -0.75900
O1624       O  0.00886699  0.77648467  0.46168543    -0.94600
O1625       O  0.96074405  0.80805873  0.01479074    -0.87900
O1626       O  0.54336797  0.76786863  0.03334902    -0.90700
C1627       C  0.97737274  0.65603183  0.44976137     1.03000
C1628       C  0.98236049  0.65165339  0.05453929     1.16000
C1629       C  0.87903973  0.72635311  0.44737774     1.06700
O1630       O  0.88815927  0.79836871  0.42317411    -0.92900
O1631       O  0.95420688  0.82951558  0.44487735    -0.88600
O1632       O  0.98322345  0.85039418  0.48289296    -0.81800
C1633       C  0.96805518  0.85261405  0.45766047     1.13400
O1634       O  0.93390327  0.76933877  0.10548960    -0.94800
Zr1635     Zr  0.97132677  0.78478674  0.05926215     1.88900
O1636       O  0.53879129  0.84166466  0.02194619    -0.71500
O1637       O  0.87130073  0.83879991  0.01341281    -0.50800
O1638       O  0.90001993  0.81212159  0.08250945    -0.95400
O1639       O  0.02962068  0.78713481  0.09378807    -0.52700
O1640       O  0.98661010  0.83865119  0.05917600    -0.72000
C1641       C  0.01416326  0.85441128  0.04385674     1.00300
O1642       O  0.57063562  0.82810305  0.47010557    -0.60800
O1643       O  0.58679093  0.66538579  0.00541361    -0.55600
O1644       O  0.58852194  0.76537190  0.96352093    -0.92300
O1645       O  0.58801216  0.71791147  0.98490066    -0.90700
O1646       O  0.59667642  0.68303447  0.46312822    -0.91100
O1647       O  0.60372593  0.74003839  0.43528458    -0.89900
C1648       C  0.60050752  0.73630628  0.96497026     1.19200
H1649       H  0.52154126  0.67237559  0.50008383     0.35100
H1650       H  0.02022604  0.78598795  0.44396852     0.46000
H1651       H  0.56839921  0.77372500  0.04354755     0.39500
H1652       H  0.90622759  0.77210097  0.04378397     0.36000
H1653       H  0.03482825  0.74728252  0.40424284     0.27800
H1654       H  0.85900106  0.81166038  0.51089226     0.33700
H1655       H  0.90742688  0.83340204  0.08686812     0.39600
H1656       H  0.59674113  0.66947969  0.44588927     0.34100
H1657       H  0.58213000  0.64777810  0.01877820     0.32900
H1658       H  0.52692805  0.70839321  0.08924259     0.34600
H1659       H  0.02273953  0.77190466  0.10920077     0.33600
H1660       H  0.60591178  0.73232063  0.41503660     0.37600
H1661       H  0.55784025  0.82743924  0.45102129     0.30300
H1662       H  0.89756240  0.72423462  0.08217072     0.34600
H1663       H  0.95093826  0.74913142  0.11030581     0.37400
H1664       H  0.57425738  0.65945892  0.98724386     0.30000
H1665       H  0.56635819  0.85067806  0.47471025     0.42900
H1666       H  0.91351511  0.79919373  0.40760775     0.32900
H1667       H  0.04224741  0.71115232  0.39940854     0.40600
H1668       H  0.51391400  0.80269250  0.10741162     0.32400
H1669       H  0.88415716  0.85747700  0.00490290     0.32500
H1670       H  0.90546039  0.68810164  0.08195321     0.32700
Zr1671     Zr  0.68497864  0.70221744  0.00259152     2.17500
O1672       O  0.62061101  0.69810654  0.03733061    -0.49600
O1673       O  0.67735322  0.66481959  0.49248399    -0.72800
O1674       O  0.65565318  0.69772657  0.95394121    -0.79600
O1675       O  0.74259542  0.67443718  0.06751244    -0.81300
O1676       O  0.59185459  0.76885655  0.48399950    -0.77000
O1677       O  0.70431623  0.65591179  0.03174342    -0.88600
O1678       O  0.71267918  0.67718036  0.44895888    -0.74600
O1679       O  0.67289684  0.73794755  0.47812820    -0.84100
O1680       O  0.76650300  0.69517203  0.00173146    -0.83700
O1681       O  0.65351210  0.75728588  0.00722265    -0.70500
O1682       O  0.69445914  0.72661166  0.04823854    -0.82600
Zr1683     Zr  0.77799252  0.80384681  0.49349934     2.26400
Zr1684     Zr  0.66015482  0.79479524  0.48421973     2.06300
Zr1685     Zr  0.77435761  0.71990889  0.04660760     2.10000
Zr1686     Zr  0.74760937  0.72479173  0.45629688     1.78800
O1687       O  0.75948087  0.71979020  0.09921604    -0.91400
O1688       O  0.70214478  0.72482015  0.41440755    -0.39300
O1689       O  0.75507536  0.75278410  0.50001401    -0.75900
O1690       O  0.73360525  0.78158269  0.45941367    -0.94600
O1691       O  0.69182329  0.80476695  0.00786921    -0.87900
O1692       O  0.74961381  0.77593071  0.04954934    -0.90700
C1693       C  0.69186256  0.65850894  0.46574020     1.03000
C1694       C  0.72290108  0.65301058  0.05599046     1.16000
C1695       C  0.58860797  0.75145854  0.50582755     1.06700
O1696       O  0.63637312  0.79968188  0.43475204    -0.92900
O1697       O  0.67812761  0.84041252  0.45602845    -0.88600
O1698       O  0.74013395  0.85286870  0.47750087    -0.81800
C1699       C  0.70831647  0.85894859  0.46041928     1.13400
O1700       O  0.61205870  0.75910268  0.08302431    -0.94800
Zr1701     Zr  0.67013178  0.78227039  0.05171385     1.88900
O1702       O  0.75682869  0.84381449  0.03976586    -0.71500
O1703       O  0.61387131  0.81839735  0.98439939    -0.50800
O1704       O  0.60181750  0.81934568  0.05973465    -0.95400
O1705       O  0.69056774  0.77522264  0.10212646    -0.52700
O1706       O  0.69453884  0.83183153  0.06862406    -0.72000
C1707       C  0.72754620  0.84876052  0.06157234     1.00300
O1708       O  0.81426222  0.82694669  0.44962189    -0.60800
O1709       O  0.83867294  0.67781258  0.04226066    -0.55600
O1710       O  0.82747403  0.79593875  0.03663763    -0.92300
O1711       O  0.83124508  0.75137491  0.05865754    -0.90700
O1712       O  0.81182598  0.68398873  0.44715355    -0.91100
O1713       O  0.79829865  0.74497104  0.41748607    -0.89900
C1714       C  0.83533460  0.76691253  0.03581827     1.19200
H1715       H  0.76140614  0.67560675  0.49986814     0.35100
H1716       H  0.73666808  0.79119677  0.44054647     0.46000
H1717       H  0.75924535  0.78560034  0.06649891     0.39500
H1718       H  0.62059724  0.75895188  0.00940195     0.36000
H1719       H  0.70515584  0.74533641  0.40518409     0.27800
H1720       H  0.63009625  0.83842451  0.53155423     0.33700
H1721       H  0.60112302  0.82564047  0.08035826     0.39600
H1722       H  0.80875064  0.67618934  0.42737225     0.34100
H1723       H  0.83230745  0.66351451  0.05859536     0.32900
H1724       H  0.79056199  0.71599017  0.10651666     0.34600
H1725       H  0.66252238  0.78313534  0.11457816     0.33600
H1726       H  0.80427918  0.72811094  0.40276737     0.37600
H1727       H  0.79233828  0.82705131  0.43437481     0.30300
H1728       H  0.61287809  0.72028586  0.04240068     0.34600
H1729       H  0.62824751  0.74007459  0.09113811     0.37400
H1730       H  0.83698203  0.66512927  0.02473421     0.30000
H1731       H  0.81719645  0.84920611  0.45349737     0.42900
H1732       H  0.66392713  0.79239423  0.42167157     0.32900
H1733       H  0.72032138  0.70980495  0.40061245     0.40600
H1734       H  0.71282874  0.79016671  0.10602035     0.32400
H1735       H  0.62465822  0.83939212  0.98498777     0.32500
H1736       H  0.63336926  0.68841452  0.05481595     0.32700
C1737       C  0.70803680  0.88801902  0.44504889    -0.11600
C1738       C  0.71121041  0.91215687  0.43202722    -0.13100
C1739       C  0.68588156  0.62835177  0.45309761    -0.11600
C1740       C  0.68714107  0.60407313  0.43940081    -0.13100
C1741       C  0.96687989  0.88238251  0.44279342    -0.11600
C1742       C  0.96618188  0.90708312  0.42995385    -0.13100
C1743       C  0.96035879  0.60786094  0.41922806    -0.11600
C1744       C  0.96862052  0.63059567  0.43201506    -0.13100
C1745       C  0.85722523  0.50819961  0.37949511    -0.11600
C1746       C  0.81340332  0.50876432  0.37966116    -0.13100
C1747       C  0.56479481  0.50425652  0.37547183    -0.11600
C1748       C  0.60748331  0.50720685  0.37657996    -0.13100
C1749       C  0.73354619  0.87508909  0.07907938    -0.11600
C1750       C  0.74089283  0.89848800  0.09124338    -0.13100
C1751       C  0.72483387  0.59983492  0.08498826    -0.09800
C1752       C  0.72260207  0.62385917  0.07131979    -0.13100
C1753       C  0.72677236  0.50915075  0.24643650    -0.11600
C1754       C  0.72502594  0.51049863  0.27265113    -0.13100
C1755       C  0.51952953  0.88251695  0.05723105    -0.11600
C1756       C  0.51620719  0.90626575  0.07179397    -0.13100
C1757       C  0.98310343  0.62345683  0.07134168    -0.11600
C1758       C  0.98077443  0.60033439  0.08605130    -0.13100
C1759       C  0.84262954  0.99847183  0.13423364    -0.11600
C1760       C  0.88012196  0.50107949  0.13734713    -0.13100
C1761       C  0.62824729  0.50549511  0.14266653    -0.11600
C1762       C  0.59230298  0.99851446  0.13921849    -0.13100
C1763       C  0.96785996  0.49601139  0.24471848    -0.11600
C1764       C  0.96618610  0.49627994  0.27099679    -0.13100
C1765       C  0.53808223  0.00135748  0.63770068     0.31700
C1766       C  0.94067068  0.50132199  0.64021197     0.31700
C1767       C  0.51229963  0.00449949  0.66855717    -0.04500
C1768       C  0.51163333  0.52791712  0.62230732    -0.05300
C1769       C  0.51644529  0.97244375  0.62591519    -0.05100
C1770       C  0.96413098  0.50181272  0.66904651    -0.04500
C1771       C  0.96190027  0.52822817  0.62397447    -0.05300
C1772       C  0.96673888  0.97400483  0.62840204    -0.05100
C1773       C  0.94924300  0.50326960  0.69815633    -0.30500
N1774       N  0.98673642  0.50373783  0.71369256     0.16000
C1775       C  0.52511489  0.00657308  0.69653683    -0.30500
H1776       H  0.56006247  0.00633551  0.70289736     0.17900
C1777       C  0.94379650  0.55524326  0.61153021    -0.29500
N1778       N  0.97920636  0.57155835  0.60203569     0.14700
C1779       C  0.52186195  0.55477975  0.60769665    -0.29500
C1780       C  0.95369334  0.94767676  0.61649670    -0.29800
N1781       N  0.49324867  0.92891992  0.60768617     0.15200
H1782       H  0.91853521  0.94229986  0.61485544     0.17800
C1783       C  0.53121192  0.94370904  0.61262084    -0.29800
H1784       H  0.56673570  0.93442817  0.60681486     0.17800
H1785       H  0.55602575  0.56199837  0.60244491     0.17800
H1786       H  0.91374745  0.50410668  0.70738187     0.17900
H1787       H  0.90746298  0.56283286  0.60999106     0.17800
C1788       C  0.78839466  0.00248679  0.64024553     0.31700
C1789       C  0.69209575  0.50121323  0.63548211     0.31700
C1790       C  0.75792253  0.00116446  0.66906105    -0.04500
C1791       C  0.76365196  0.53012655  0.62614865    -0.05300
C1792       C  0.77135717  0.97602061  0.62282474    -0.05100
C1793       C  0.71124831  0.49704310  0.66585968    -0.04500
C1794       C  0.71507793  0.53079699  0.62441950    -0.05300
C1795       C  0.72284011  0.97651943  0.62113890    -0.05100
C1796       C  0.69244818  0.49511796  0.69425955    -0.30500
N1797       N  0.72733464  0.49357567  0.71221505     0.16000
C1798       C  0.76607827  0.00069839  0.69798662    -0.30500
H1799       H  0.79942938  0.00074687  0.70668995     0.17900
C1800       C  0.70222731  0.55770048  0.60908395    -0.29500
N1801       N  0.74053432  0.57275982  0.60201098     0.14700
C1802       C  0.77781976  0.55618011  0.61224576    -0.29500
C1803       C  0.71677861  0.95252006  0.60259187    -0.29800
N1804       N  0.75901554  0.93785002  0.59322165     0.15200
H1805       H  0.68406943  0.94651476  0.59595260     0.17800
C1806       C  0.79240551  0.95183234  0.60534615    -0.29800
H1807       H  0.82926315  0.94525060  0.60132029     0.17800
H1808       H  0.81310770  0.56194305  0.60866801     0.17800
H1809       H  0.65603540  0.49566325  0.70137790     0.17900
H1810       H  0.66798159  0.56505076  0.60251225     0.17800
C1811       C  0.01201843  0.50557404  0.87791014     0.31700
C1812       C  0.91444818  0.50556420  0.87527637     0.31700
C1813       C  0.99302402  0.50722954  0.84742786    -0.04500
C1814       C  0.98809671  0.98125403  0.89205915    -0.05300
C1815       C  0.97997157  0.53248784  0.89380476    -0.05100
C1816       C  0.94450902  0.50717797  0.84622690    -0.04500
C1817       C  0.93961371  0.98152355  0.89087180    -0.05300
C1818       C  0.93130620  0.53252645  0.89264162    -0.05100
C1819       C  0.93626669  0.50711351  0.81730843    -0.30500
N1820       N  0.97726285  0.50721285  0.80108198     0.16000
C1821       C  0.01200846  0.50721516  0.81898240    -0.30500
H1822       H  0.54921730  0.50224757  0.81211328     0.17900
C1823       C  0.92666223  0.95460751  0.90358676    -0.29500
N1824       N  0.96480314  0.93792626  0.91253761     0.14700
C1825       C  0.00242057  0.95368252  0.90581043    -0.29500
C1826       C  0.91070701  0.55728161  0.90983505    -0.29800
N1827       N  0.94442893  0.57193459  0.92111772     0.15200
H1828       H  0.87390599  0.56397959  0.91399541     0.17800
C1829       C  0.98644372  0.55708897  0.91154681    -0.29800
H1830       H  0.01941135  0.56357051  0.91728933     0.17800
H1831       H  0.53872346  0.94628939  0.91159061     0.17800
H1832       H  0.90297688  0.50646636  0.80866561     0.17900
H1833       H  0.89182669  0.94789153  0.90666295     0.17800
C1834       C  0.76376294  0.50033658  0.87344486     0.31700
C1835       C  0.66503567  0.50473993  0.87671387     0.31700
C1836       C  0.74080622  0.49720506  0.84458597    -0.04500
C1837       C  0.73917994  0.97837238  0.89229617    -0.05300
C1838       C  0.73698242  0.53060851  0.88518153    -0.05100
C1839       C  0.69160713  0.49928223  0.84628355    -0.04500
C1840       C  0.69001821  0.98042567  0.89378994    -0.05300
C1841       C  0.68788817  0.53350023  0.88722999    -0.05100
C1842       C  0.67924914  0.49755371  0.81817344    -0.30500
N1843       N  0.71838319  0.49452195  0.79980448     0.16000
C1844       C  0.75588704  0.49434774  0.81548829    -0.30500
H1845       H  0.79146344  0.49297771  0.80632898     0.17900
C1846       C  0.67709565  0.95489700  0.90931829    -0.29500
N1847       N  0.71589220  0.93776892  0.91718749     0.14700
C1848       C  0.75374428  0.95168914  0.90704940    -0.29500
C1849       C  0.67430200  0.56287857  0.89931836    -0.29800
N1850       N  0.71312313  0.57677076  0.90390010     0.15200
H1851       H  0.63912774  0.57305100  0.90487088     0.17800
C1852       C  0.75099203  0.55737459  0.89534856    -0.29800
H1853       H  0.78637909  0.56219059  0.89712954     0.17800
H1854       H  0.78922915  0.94289295  0.90999967     0.17800
H1855       H  0.64434081  0.49919815  0.81150800     0.17900
H1856       H  0.64208741  0.94910137  0.91440320     0.17800
Zr1857     Zr  0.92719705  0.70084368  0.50491257     2.17500
O1858       O  0.85968567  0.67073886  0.51144669    -0.49600
O1859       O  0.92375054  0.66167206  0.99055600    -0.72800
O1860       O  0.90125832  0.70120546  0.45512678    -0.79600
O1861       O  0.49258472  0.67534201  0.56946670    -0.81300
O1862       O  0.84087704  0.76806512  0.98580490    -0.77000
O1863       O  0.94488376  0.65805651  0.53852498    -0.88600
O1864       O  0.95946737  0.67271716  0.94658374    -0.74600
O1865       O  0.91684401  0.73768591  0.97601540    -0.84100
O1866       O  0.00948023  0.69337589  0.50427833    -0.83700
O1867       O  0.89715615  0.75648217  0.51151932    -0.70500
O1868       O  0.94177780  0.72910581  0.54598797    -0.82600
Zr1869     Zr  0.52928553  0.79740085  0.98939557     2.26400
Zr1870     Zr  0.90877897  0.79433051  0.98399749     2.06300
Zr1871     Zr  0.52194821  0.71966836  0.54549469     2.10000
Zr1872     Zr  0.98949696  0.72268093  0.95143012     1.78800
O1873       O  0.51843665  0.71721357  0.59831046    -0.91400
O1874       O  0.94225793  0.72389810  0.91034427    -0.39300
O1875       O  0.50007644  0.74750309  0.99445914    -0.75900
O1876       O  0.97895282  0.77918962  0.95667959    -0.94600
O1877       O  0.94104728  0.80429730  0.51023907    -0.87900
O1878       O  0.50068164  0.77618949  0.55041540    -0.90700
C1879       C  0.93942897  0.65426412  0.96410625     1.03000
C1880       C  0.96545435  0.65526836  0.56196101     1.16000
C1881       C  0.83650971  0.75185663  0.00839187     1.06700
O1882       O  0.88549090  0.80298198  0.93459018    -0.92900
O1883       O  0.92698085  0.84027804  0.95601175    -0.88600
O1884       O  0.99741901  0.84777194  0.96972953    -0.81800
C1885       C  0.96166744  0.85617593  0.95631450     1.13400
O1886       O  0.85510930  0.77185141  0.58884689    -0.94800
Zr1887     Zr  0.91908795  0.78239729  0.55413956     1.88900
O1888       O  0.50675775  0.84561143  0.54033886    -0.71500
O1889       O  0.86376946  0.81859058  0.49063718    -0.50800
O1890       O  0.85805158  0.82522531  0.56363586    -0.95400
O1891       O  0.94599779  0.76479598  0.60071956    -0.52700
O1892       O  0.94808790  0.83094968  0.57147892    -0.72000
C1893       C  0.97766472  0.84992542  0.56253801     1.00300
O1894       O  0.56586252  0.81351049  0.94242039    -0.60800
O1895       O  0.58706941  0.67847206  0.53744445    -0.55600
O1896       O  0.57830879  0.79491635  0.53522889    -0.92300
O1897       O  0.58100752  0.74989025  0.55598625    -0.90700
O1898       O  0.55794341  0.68764210  0.93763224    -0.91100
O1899       O  0.54624113  0.73833018  0.91310608    -0.89900
C1900       C  0.58578077  0.76586580  0.53356039     1.19200
H1901       H  0.49841859  0.67148664  0.99202865     0.35100
H1902       H  0.98013483  0.78933745  0.93805951     0.46000
H1903       H  0.51117377  0.78510539  0.56753749     0.39500
H1904       H  0.86427363  0.75878580  0.51553823     0.36000
H1905       H  0.94526524  0.74446003  0.90121706     0.27800
H1906       H  0.88399943  0.83681496  0.03259221     0.33700
H1907       H  0.86927961  0.84353587  0.55337664     0.39600
H1908       H  0.54812986  0.67165929  0.92484494     0.34100
H1909       H  0.58055250  0.66213770  0.55188852     0.32900
H1910       H  0.53647428  0.73398146  0.60423339     0.34600
H1911       H  0.92796700  0.74747220  0.60728402     0.33600
H1912       H  0.53293047  0.75835230  0.90520463     0.37600
H1913       H  0.54364623  0.81273033  0.92749050     0.30300
H1914       H  0.86858331  0.65215881  0.52318542     0.34600
H1915       H  0.85650516  0.78562369  0.60576950     0.37400
H1916       H  0.58668913  0.66805384  0.51852926     0.30000
H1917       H  0.57093412  0.83583298  0.94333125     0.42900
H1918       H  0.90902430  0.79096550  0.92127234     0.32900
H1919       H  0.95963883  0.70885138  0.89626352     0.40600
H1920       H  0.43834243  0.78279340  0.61449675     0.32400
H1921       H  0.87598517  0.83910288  0.49172423     0.32500
H1922       H  0.85721065  0.66181417  0.49201631     0.32700
Zr1923     Zr  0.67673254  0.71118418  0.52436158     2.17500
O1924       O  0.63431828  0.70478636  0.57205894    -0.49600
O1925       O  0.70221643  0.65766884  0.97168523    -0.72800
O1926       O  0.60429252  0.72317772  0.50344160    -0.79600
O1927       O  0.77743255  0.66967792  0.55390229    -0.81300
O1928       O  0.66061783  0.74229033  0.93214668    -0.77000
O1929       O  0.70359720  0.66265246  0.54624708    -0.88600
O1930       O  0.75870653  0.67395902  0.93980482    -0.74600
O1931       O  0.70996208  0.73124769  0.96206224    -0.84100
O1932       O  0.75197604  0.69767795  0.50210184    -0.83700
O1933       O  0.67586986  0.76714026  0.52856070    -0.70500
O1934       O  0.72118786  0.73675377  0.55459749    -0.82600
Zr1935     Zr  0.76806090  0.80339066  0.00457181     2.26400
Zr1936     Zr  0.67971875  0.78433535  0.96346927     2.06300
Zr1937     Zr  0.79267339  0.72244015  0.53597292     2.10000
Zr1938     Zr  0.78674269  0.72223787  0.95814011     1.78800
O1939       O  0.78229171  0.73434080  0.58764240    -0.91400
O1940       O  0.76620723  0.72217407  0.90810511    -0.39300
O1941       O  0.75357505  0.74830022  0.00260176    -0.75900
O1942       O  0.76264266  0.77813979  0.95904557    -0.94600
O1943       O  0.70769679  0.81178977  0.51631024    -0.87900
O1944       O  0.79028936  0.77849872  0.53931029    -0.90700
C1945       C  0.72959118  0.65448144  0.94852509     1.03000
C1946       C  0.74237117  0.65362818  0.55605930     1.16000
C1947       C  0.63564523  0.72309414  0.94493118     1.06700
O1948       O  0.64799805  0.79833369  0.91749252    -0.92900
O1949       O  0.70871694  0.83133959  0.94361864    -0.88600
O1950       O  0.73070874  0.85101854  0.98437889    -0.81800
C1951       C  0.71878056  0.85422547  0.95842028     1.13400
O1952       O  0.67164696  0.77634366  0.60673499    -0.94800
Zr1953     Zr  0.71472926  0.79095484  0.56210437     1.88900
O1954       O  0.79072831  0.84587001  0.52696699    -0.71500
O1955       O  0.61896815  0.83941517  0.51193018    -0.50800
O1956       O  0.64042273  0.81727817  0.58179166    -0.95400
O1957       O  0.76689656  0.79725320  0.59981104    -0.52700
O1958       O  0.72917980  0.84492827  0.55989082    -0.72000
C1959       C  0.76309774  0.85807176  0.54801767     1.00300
O1960       O  0.82215665  0.82846946  0.97138834    -0.60800
O1961       O  0.86561831  0.70499147  0.55590327    -0.55600
O1962       O  0.83539009  0.76929440  0.46797323    -0.92300
O1963       O  0.83350220  0.72175302  0.48919339    -0.90700
O1964       O  0.85501377  0.68672198  0.96134804    -0.91100
O1965       O  0.85472125  0.74305101  0.93490161    -0.89900
C1966       C  0.84571823  0.73988893  0.46885238     1.19200
H1967       H  0.77711144  0.67322351  0.00051820     0.35100
H1968       H  0.77520305  0.78819137  0.94192042     0.46000
H1969       H  0.81404124  0.78628021  0.54923834     0.39500
H1970       H  0.65522104  0.77361941  0.54428593     0.36000
H1971       H  0.76525120  0.74426109  0.90198926     0.27800
H1972       H  0.60950894  0.81213272  0.00489451     0.33700
H1973       H  0.64653562  0.83881695  0.58625873     0.39600
H1974       H  0.84720209  0.66729322  0.95249303     0.34100
H1975       H  0.86729937  0.71861225  0.57276196     0.32900
H1976       H  0.78401538  0.71382266  0.59743577     0.34600
H1977       H  0.75450848  0.78640437  0.61720199     0.33600
H1978       H  0.84703962  0.74816099  0.91485298     0.37600
H1979       H  0.80941439  0.82889660  0.95222957     0.30300
H1980       H  0.64568894  0.71997694  0.58498937     0.34600
H1981       H  0.68834230  0.75649974  0.61281690     0.37400
H1982       H  0.86055681  0.68473043  0.56514558     0.30000
H1983       H  0.81772403  0.85076769  0.97704926     0.42900
H1984       H  0.67484531  0.79552457  0.90278136     0.32900
H1985       H  0.79385502  0.71159063  0.89689361     0.40600
H1986       H  0.76185580  0.81959502  0.60528281     0.32400
H1987       H  0.63124176  0.85826872  0.50339472     0.32500
H1988       H  0.64451361  0.68427260  0.58035728     0.32700
C1989       C  0.71750585  0.88459401  0.94498383    -0.11600
C1990       C  0.71675546  0.90939043  0.93247782    -0.13100
C1991       C  0.72404803  0.62821883  0.93060948    -0.11600
C1992       C  0.71642827  0.60520309  0.91780466    -0.13100
C1993       C  0.96151922  0.88511735  0.94047075    -0.11600
C1994       C  0.96393597  0.90942458  0.92746140    -0.13100
C1995       C  0.93771092  0.59907662  0.93882105    -0.11600
C1996       C  0.93517908  0.62339789  0.95252516    -0.13100
C1997       C  0.86084170  0.50347479  0.87377937    -0.11600
C1998       C  0.81802433  0.50074947  0.87290276    -0.13100
C1999       C  0.56648973  0.50558192  0.87861754    -0.11600
C2000       C  0.61021919  0.50589077  0.87811715    -0.13100
C2001       C  0.76941412  0.88802691  0.56011023    -0.11600
C2002       C  0.76652209  0.91166432  0.57458116    -0.13100
C2003       C  0.74279680  0.60017129  0.58525016    -0.09800
C2004       C  0.74524531  0.62403174  0.57129587    -0.13100
C2005       C  0.72228366  0.49327902  0.74285380    -0.11600
C2006       C  0.71985036  0.49358375  0.76921254    -0.13100
C2007       C  0.48588672  0.87606671  0.58136255    -0.11600
C2008       C  0.49164851  0.89994696  0.59384672    -0.13100
C2009       C  0.96770925  0.62580145  0.57673227    -0.11600
C2010       C  0.97340441  0.60078055  0.58851026    -0.13100
C2011       C  0.84196595  0.00262563  0.64207560    -0.11600
C2012       C  0.88651046  0.50130598  0.64093816    -0.13100
C2013       C  0.63772572  0.50073791  0.63464535    -0.11600
C2014       C  0.59289561  0.00178988  0.63606707    -0.13100
C2015       C  0.98521770  0.50517859  0.74420829    -0.11600
C2016       C  0.98251717  0.50624155  0.77050580    -0.13100
loop_ 
_geom_bond_atom_site_label_1 
_geom_bond_atom_site_label_2 
_geom_bond_distance 
_geom_bond_site_symmetry_2 
_ccdc_geom_bond_type 
C1            C3   1.542       .  S
C1            C5   1.544       .  S
C1          C508   1.536       .  S
C1          C250   1.573       .  S
C2            C6   1.555       .  S
C2            C7   1.563   1_565  S
C2          C512   1.563       .  S
C2          C248   1.593       .  S
C3           C11   1.375       .  A
C3         C1518   1.420   1_455  A
C4          C505   1.540   1_545  S
C4           C15   1.372       .  A
C4         C1015   1.422   1_455  A
C5           C19   1.378       .  A
C5         C1016   1.422   1_455  A
C6            C9   1.384       .  A
C6         C1515   1.419       .  A
C7           C13   1.388       .  A
C7         C1012   1.420       .  A
C8          C506   1.557       .  S
C8           C16   1.381       .  A
C8         C1013   1.423       .  A
C9           N10   1.361       .  A
C9           H22   1.082       .  S
N10        C1523   1.355       .  A
N10         C251   1.407       .  S
C11        N1522   1.356   1_455  A
C11          H12   1.083       .  S
C13          N14   1.365       .  A
C13          H23   1.082       .  S
N14        C1023   1.352       .  A
N14         C246   1.409       .  S
C15        N1022   1.352   1_455  A
C15          H21   1.083       .  S
C16        N1025   1.361       .  A
C16          H18   1.083       .  S
N17          C19   1.356       .  A
N17        C1024   1.362   1_455  A
N17         C244   1.410       .  S
C19          H20   1.083       .  S
C24          C26   1.554       .  S
C24          C28   1.571       .  S
C24         C531   1.563       .  S
C24         C247   1.589       .  S
C25          C29   1.549       .  S
C25          C30   1.535       .  S
C25         C535   1.526   1_545  S
C25         C249   1.577       .  S
C26          C34   1.383       .  A
C26         C533   1.418       .  A
C27         C528   1.558   1_545  S
C27          C38   1.382       .  A
C27          C30   1.422       .  A
C28          C42   1.396       .  A
C28          C31   1.418       .  A
C29          C32   1.377       .  A
C29         C530   1.425       .  A
C30          C36   1.369       .  A
C31         C529   1.537       .  S
C31          C39   1.373       .  A
C32          N33   1.358       .  A
C32          H45   1.083       .  S
N33         C538   1.358   1_545  A
N33         C241   1.406       .  S
C34         N537   1.360       .  A
C34          H35   1.083       .  S
C36          N37   1.351       .  A
C36          H46   1.083       .  S
N37          C38   1.361       .  A
N37         C239   1.401       .  S
C38          H44   1.083       .  S
C39          N40   1.352       .  A
C39          H41   1.083       .  S
N40          C42   1.369       .  A
N40         C238   1.417       .  S
C42          H43   1.082       .  S
C47          C49   1.552   1_545  S
C47          C51   1.524       .  S
C47         C554   1.555   1_545  S
C47        C1243   1.582       .  S
C48          C52   1.551       .  S
C48          C54   1.561       .  S
C48         C557   1.550   1_545  S
C48         C233   1.586       .  S
C49          C57   1.380       .  A
C49          C52   1.424   1_565  A
C50         C551   1.549       .  S
C50          C61   1.379       .  A
C50          C53   1.424       .  A
C51          C65   1.360       .  A
C51          C54   1.419       .  A
C52          C55   1.378       .  A
C53         C552   1.558       .  S
C53          C59   1.382       .  A
C54          C62   1.388       .  A
C55          N56   1.357   1_545  A
C55          H68   1.083       .  S
N56          C57   1.359       .  A
N56         C252   1.407       .  S
C57        H1066   1.083       .  S
H58        C1065   1.083   1_565  S
C59          N60   1.360       .  A
C59          H69   1.083       .  S
N60          C61   1.358       .  A
N60         C230   1.409       .  S
C61        H1075   1.083       .  S
C62          N63   1.365       .  A
C62          H64   1.082       .  S
N63          C65   1.344       .  A
N63         C231   1.398       .  S
C65          H66   1.083       .  S
H67        C1069   1.083       .  S
C70          C72   1.551       .  S
C70          C74   1.557       .  S
C70         C577   1.560   1_545  S
C70         C234   1.586       .  S
C71          C75   1.545       .  S
C71          C77   1.568       .  S
C71         C580   1.534   1_545  S
C71         C236   1.582       .  S
C72          C80   1.382       .  A
C72          C75   1.418       .  A
C73         C574   1.560       .  S
C73          C84   1.388       .  A
C73          C76   1.417       .  A
C74          C88   1.383       .  A
C74          C77   1.424       .  A
C75          C78   1.377       .  A
C76         C575   1.538       .  S
C76          C82   1.374       .  A
C77          C85   1.393       .  A
C78          N79   1.356       .  A
C78          H91   1.083       .  S
N79          C80   1.359       .  A
N79         C242   1.406       .  S
C80          H81   1.083       .  S
C82          N83   1.353       .  A
C82          H92   1.083       .  S
N83          C84   1.364       .  A
N83         C226   1.411       .  S
C84          H90   1.082       .  S
C85          N86   1.367       .  A
C85          H87   1.082       .  S
N86          C88   1.361       .  A
N86         C228   1.424       .  S
C88          H89   1.083       .  S
Zr93         O94   2.462       .  S
Zr93         O96   2.392       .  S
Zr93         O99   2.389       .  S
Zr93        O347   2.487   1_554  S
Zr93        O102   2.351       .  S
Zr93        O103   2.410       .  S
Zr93        O353   2.424   1_554  S
Zr93        O104   2.335       .  S
O94         H150   0.988       .  S
O94         H158   0.989       .  S
O95        Zr345   2.401       .  S
O95         C115   1.273       .  A
O96         C369   1.257       .  A
O97        Zr107   2.486       .  S
O97        C1124   1.291   1_455  A
O98        Zr106   2.441       .  S
O98         C117   1.263       .  A
O99         C116   1.272       .  A
O100       Zr108   2.452       .  S
O100        C115   1.284       .  A
O101       Zr106   2.397       .  S
O101       Zr108   2.258       .  S
O101       Zr345   2.371       .  S
O102      Zr1115   2.359       .  S
O102       Zr360   2.408   1_554  S
O102       H1397   0.966       .  S
O103       Zr123   2.302       .  S
O103       Zr358   2.405   1_554  S
O103        H140   0.929       .  S
O104       Zr123   2.351       .  S
O104      Zr1115   2.215       .  S
Zr105       O130   2.441       .  S
Zr105       O376   2.375       .  S
Zr105       O384   2.360       .  S
Zr105      O1128   2.442   1_455  S
Zr105       O111   2.446       .  S
Zr105      O1120   2.403       .  S
Zr105       O366   2.447       .  S
Zr105      O1373   2.210   1_455  S
Zr106       O118   2.437       .  S
Zr106       O377   2.430       .  S
Zr106       O119   2.431       .  S
Zr106       O112   2.400       .  S
Zr106       O355   2.477       .  S
Zr106       O365   2.294       .  S
Zr107       O109   2.432       .  S
Zr107       O131   2.432       .  S
Zr107       O133   2.380   1_554  S
Zr107       O114   2.410       .  S
Zr107      O1110   2.355   1_455  S
Zr107       O363   2.374       .  S
Zr107      O1112   2.210   1_455  S
Zr108       O110   2.440       .  S
Zr108      O1142   2.420       .  S
Zr108      O1143   2.433       .  S
Zr108       O112   2.441       .  S
Zr108       O354   2.402       .  S
Zr108      O1119   2.406       .  S
O109        H146   0.990       .  S
O110        H141   0.990       .  S
O110        H155   0.991       .  S
O111       Zr359   2.432       .  S
O111      Zr1116   2.406       .  S
O112      Zr1113   2.405       .  S
O112        H138   0.964       .  S
O113       Zr123   2.312       .  S
O113      Zr1365   2.220   1_554  S
O113       Zr358   2.283   1_554  S
O114       Zr357   2.418   1_554  S
O114      Zr1131   2.377   1_455  S
O114        H139   0.956       .  S
C115        C232   1.431       .  S
C116       O1105   1.291       .  A
C116        C245   1.445       .  S
C117        O348   1.268       .  A
C117        C454   1.412       .  S
O118        H154   0.991       .  S
O119        C121   1.277       .  A
O120      Zr1113   2.433       .  S
O120        C121   1.278       .  A
C121        C229   1.445       .  S
O122       Zr123   2.438       .  S
O122        H151   0.990       .  S
Zr123       O126   2.439       .  S
Zr123       O127   2.446       .  S
Zr123       O128   2.412       .  S
Zr123      O1122   2.364       .  S
O124       Zr357   2.466   1_554  S
O124       C1137   1.288       .  A
O125       Zr358   2.461   1_554  S
O125        H157   0.990       .  S
O125        H394   0.987       .  S
O126        H143   0.990       .  S
O127        H147   0.989       .  S
O127       H1164   0.989       .  S
O128        C129   1.275       .  A
C129       O1132   1.288       .  A
C129       C1251   1.447       .  S
O130        H149   0.987       .  S
O130        H153   0.990       .  S
O131        H145   0.982       .  S
O131        H152   0.990       .  S
O132       Zr357   2.355       .  S
O132        C136   1.270       .  A
O133        C136   1.272       .  A
O134      Zr1116   2.422       .  S
O134        H144   0.990       .  S
O135      Zr1116   2.425       .  S
O135        H148   0.989       .  S
C136        C435   1.413       .  S
H137       O1362   0.964       .  S
H142        O377   0.984       .  S
H156       O1135   0.989       .  S
Zr159       O160   2.473       .  S
Zr159       O162   2.471   1_554  S
Zr159       O165   2.447       .  S
Zr159       O413   2.405   1_554  S
Zr159       O168   2.382       .  S
Zr159       O169   2.478       .  S
Zr159       O419   2.375   1_554  S
Zr159       O170   2.361       .  S
O160        H216   0.989       .  S
O160        H224   0.990   1_554  S
O161       Zr411   2.493       .  S
O161        C181   1.294       .  A
O162        C435   1.266       .  A
O163       Zr173   2.396       .  S
O163        C182   1.272       .  A
O164       Zr172   2.393       .  S
O164        C183   1.261       .  A
O165        C182   1.280       .  A
O166       Zr174   2.430       .  S
O166        C181   1.279       .  A
O167       Zr172   2.453       .  S
O167       Zr174   2.336       .  S
O167       Zr411   2.422       .  S
O168       Zr173   2.385       .  S
O168       Zr426   2.399   1_554  S
O168        H455   0.964       .  S
O169       Zr189   2.443       .  S
O169       Zr424   2.471   1_554  S
O169        H206   0.955       .  S
O170       Zr173   2.255       .  S
O170       Zr189   2.360       .  S
Zr171       O196   2.457       .  S
Zr171       O186   2.433       .  S
Zr171       O442   2.457       .  S
Zr171       O450   2.349       .  S
Zr171       O177   2.380       .  S
Zr171       O178   2.374       .  S
Zr171       O432   2.415       .  S
Zr171       O431   2.220       .  S
Zr172       O184   2.448       .  S
Zr172       O443   2.460       .  S
Zr172       O185   2.442       .  S
Zr172       O178   2.356       .  S
Zr172       O421   2.422       .  S
Zr172       O431   2.284       .  S
Zr173       O175   2.433       .  S
Zr173       O197   2.464       .  S
Zr173       O199   2.357       .  S
Zr173       O180   2.450       .  S
Zr173       O429   2.432       .  S
Zr174       O200   2.439       .  S
Zr174       O201   2.441       .  S
Zr174       O176   2.437       .  S
Zr174       O177   2.397       .  S
Zr174       O178   2.435       .  S
Zr174       O420   2.417       .  S
O175        H212   0.990       .  S
O176        H207   0.990       .  S
O176        H221   0.990       .  S
O177       Zr425   2.378       .  S
O178        H204   0.965       .  S
O179       Zr189   2.300       .  S
O179       Zr423   2.212       .  S
O179       Zr424   2.300   1_554  S
O180       Zr189   2.295       .  S
O180       Zr423   2.447       .  S
O180        H205   0.967       .  S
C181        C227   1.467       .  S
C182        C240   1.433       .  S
C183        O414   1.256       .  A
C183        C388   1.421       .  S
O184        H220   0.987       .  S
O185        C187   1.281       .  A
O186        C187   1.277       .  A
C187        C225   1.448       .  S
O188       Zr189   2.447       .  S
O188        H217   0.990       .  S
Zr189       O192   2.436       .  S
Zr189       O193   2.437       .  S
Zr189       O194   2.506       .  S
O190       Zr423   2.390       .  S
O190        C195   1.272       .  A
O191       Zr424   2.428       .  S
O191        H223   0.990       .  S
O191        H460   0.984   1_556  S
O192        H209   0.990       .  S
O193        H213   0.989       .  S
O193        H222   0.989       .  S
O194        C195   1.293       .  A
C195        C237   1.458       .  S
O196        H215   0.990       .  S
O196        H219   0.991       .  S
O197        H211   0.990       .  S
O197        H218   0.987       .  S
O198       Zr423   2.366       .  S
O198        C202   1.252       .  A
O199        C202   1.251       .  A
O200        H210   0.989       .  S
O201        H214   0.990       .  S
C202        C369   1.421       .  S
H203        O420   0.966       .  S
H208        O443   0.987       .  S
C225        C226   1.214       .  T
C227        C228   1.225       .  T
C229        C230   1.212       .  T
C231        C232   1.204       .  T
C233        C234   1.272       .  T
C235       C1055   1.582       .  S
C235        C236   1.270       .  T
C237        C238   1.220       .  T
C239        C240   1.205       .  T
C241        C242   1.210       .  T
C243       C1137   1.443       .  S
C243        C244   1.212       .  T
C245        C246   1.213       .  T
C247        C752   1.275       .  T
C248        C751   1.277       .  T
C249        C754   1.267   1_545  T
C250        C753   1.265       .  T
C251        C252   1.211       .  T
C253        C255   1.554       .  S
C253        C257   1.573       .  S
C253        C760   1.560       .  S
C253        C502   1.596       .  S
C254        C258   1.548       .  S
C254        C764   1.532   1_545  S
C254        C259   1.538       .  S
C254        C500   1.575       .  S
C255        C263   1.380       .  A
C255       C1770   1.423   1_455  A
C256        C757   1.563       .  S
C256        C267   1.387       .  A
C256       C1267   1.419   1_455  A
C257        C271   1.395       .  A
C257       C1268   1.421   1_455  A
C258       C1767   1.422       .  A
C258        C261   1.378       .  A
C259       C1264   1.420       .  A
C259        C265   1.374       .  A
C260        C758   1.536       .  S
C260       C1265   1.421       .  A
C260        C268   1.371       .  A
C261        N262   1.358       .  A
C261        H274   1.083       .  S
N262       C1775   1.359       .  A
N262        C503   1.408       .  S
C263       N1774   1.359   1_455  A
C263        H264   1.082       .  S
C265        N266   1.354       .  A
C265        H275   1.083       .  S
N266       C1275   1.361       .  A
N266        C498   1.404       .  S
C267       N1274   1.364   1_455  A
C267        H273   1.082       .  S
C268       N1277   1.351       .  A
C268        H270   1.083       .  S
N269       C1276   1.348       .  A
N269        C271   1.369   1_655  A
N269        C496   1.410       .  S
C271        H272   1.082       .  S
C276        C278   1.542       .  S
C276        C280   1.541       .  S
C276        C783   1.536       .  S
C276        C499   1.575       .  S
C277        C281   1.555       .  S
C277        C787   1.558   1_545  S
C277        C282   1.569       .  S
C277        C501   1.599       .  S
C278        C286   1.374       .  A
C278        C785   1.421       .  A
C279        C780   1.535       .  S
C279        C290   1.369       .  A
C279        C282   1.424       .  A
C280        C294   1.376       .  A
C280        C283   1.422       .  A
C281        C782   1.421       .  A
C281        C284   1.381   1_545  A
C282        C288   1.390       .  A
C283        C781   1.557       .  S
C283        C291   1.380       .  A
C284        N285   1.360       .  A
C284        H297   1.082       .  S
N285        C790   1.354   1_565  A
N285        C493   1.403       .  S
C286        N789   1.355       .  A
C286        H287   1.083       .  S
C288        N289   1.367       .  A
C288        H298   1.082       .  S
N289        C290   1.350       .  A
N289        C491   1.409       .  S
C290        H296   1.083       .  S
C291        N292   1.361       .  A
C291        H293   1.083       .  S
N292        C294   1.355       .  A
N292        C490   1.406       .  S
C294        H295   1.083       .  S
C299        C301   1.551       .  S
C299        C303   1.555       .  S
C299        C806   1.555   1_545  S
C299       C1495   1.587       .  S
C300        C304   1.550       .  S
C300        C306   1.564       .  S
C300        C809   1.542   1_545  S
C300        C485   1.587       .  S
C301        C309   1.381       .  A
C301        C304   1.420       .  A
C302        C803   1.559       .  S
C302        C313   1.385       .  A
C302        C305   1.421       .  A
C303        C317   1.382       .  A
C303        C306   1.424       .  A
C304        C307   1.379       .  A
C305        C804   1.536       .  S
C305        C311   1.369       .  A
C306        C314   1.390       .  A
C307        N308   1.358       .  A
C307        H320   1.083       .  S
N308        C309   1.359       .  A
N308        C504   1.408       .  S
C309       H1318   1.083       .  S
H310       C1317   1.082       .  S
C311        N312   1.351       .  A
C311        H321   1.083       .  S
N312        C313   1.363       .  A
N312        C482   1.403       .  S
C313       H1327   1.082       .  S
C314        N315   1.365       .  A
C314        H316   1.082       .  S
N315        C317   1.360       .  A
N315        C483   1.421       .  S
C317        H318   1.083       .  S
H319       C1321   1.082       .  S
C322        C324   1.553       .  S
C322        C326   1.524       .  S
C322        C829   1.548   1_545  S
C322        C486   1.588       .  S
C323        C327   1.549       .  S
C323        C329   1.555       .  S
C323        C832   1.549   1_545  S
C323        C488   1.590       .  S
C324        C332   1.377   1_545  A
C324        C327   1.427       .  A
C325        C826   1.552       .  S
C325        C336   1.380       .  A
C325        C328   1.422       .  A
C326        C340   1.358       .  A
C326        C329   1.420       .  A
C327        C330   1.375       .  A
C328        C827   1.551       .  S
C328        C334   1.378       .  A
C329        C337   1.383       .  A
C330        N331   1.356   1_545  A
C330        H343   1.083       .  S
N331        C332   1.359       .  A
N331        C494   1.403       .  S
C332        H333   1.083       .  S
C334        N335   1.358       .  A
C334        H344   1.083       .  S
N335        C336   1.360       .  A
N335        C478   1.408       .  S
C336        H342   1.083       .  S
C337        N338   1.362       .  A
C337        H339   1.082       .  S
N338        C340   1.345       .  A
N338        C480   1.393       .  S
C340        H341   1.083       .  S
Zr345       O346   2.470       .  S
Zr345       O348   2.474       .  S
Zr345       O351   2.452       .  S
Zr345       O354   2.387       .  S
Zr345       O355   2.479       .  S
Zr345       O356   2.352       .  S
O346        H402   0.989       .  S
O346        H410   0.990       .  S
O347        C367   1.293       .  A
O349       Zr359   2.405   1_655  S
O349       C1376   1.274       .  A
O350       Zr358   2.384       .  S
O350        C369   1.259   1_556  A
O351        C368   1.281       .  A
O352       Zr360   2.424       .  S
O352        C367   1.277       .  A
O353       Zr358   2.453       .  S
O353       Zr360   2.336       .  S
O354      Zr1367   2.386       .  S
O354       H1145   0.964       .  S
O355       Zr375   2.433       .  S
O355        H392   0.957       .  S
O356      Zr1367   2.255       .  S
O356       Zr375   2.353       .  S
Zr357       O382   2.461       .  S
Zr357      O1380   2.414   1_455  S
Zr357       O363   2.374   1_556  S
Zr357      O1372   2.380   1_455  S
Zr357      O1121   2.217   1_456  S
Zr358       O370   2.445       .  S
Zr358       O371   2.437       .  S
Zr358       O364   2.341       .  S
Zr359       O361   2.433       .  S
Zr359       O383   2.459       .  S
Zr359       O385   2.348       .  S
Zr359      O1362   2.383       .  S
Zr359       O366   2.452       .  S
Zr359      O1364   2.251   1_455  S
Zr360      O1394   2.444       .  S
Zr360      O1395   2.442       .  S
Zr360       O362   2.438       .  S
Zr360       O364   2.427       .  S
Zr360      O1371   2.308   1_556  S
O361        H398   0.990       .  S
O362        H393   0.989       .  S
O362        H407   0.990       .  S
O363      Zr1368   2.392   1_454  S
O364      Zr1365   2.376       .  S
O364        H390   0.964       .  S
O365      Zr1113   2.212       .  S
O365       Zr375   2.300       .  S
O366      Zr1383   2.297   1_455  S
O366        H391   0.967       .  S
C367        C484   1.462       .  S
C368       O1357   1.273       .  A
C368        C497   1.438       .  S
O370        H406   0.987       .  S
O371        C373   1.279       .  A
O372      Zr1365   2.412       .  S
O372        C373   1.272       .  A
C373        C481   1.436       .  S
O374       Zr375   2.432       .  S
O374        H403   0.990       .  S
Zr375       O378   2.440       .  S
Zr375       O379   2.445       .  S
Zr375       O380   2.503       .  S
Zr375      O1374   2.299       .  S
O376       C1389   1.270   1_455  A
O377        H409   0.990       .  S
O378        H395   0.990       .  S
O379        H399   0.990       .  S
O379       H1416   0.990       .  S
O380        C381   1.293       .  A
C381       O1384   1.273       .  A
C381       C1503   1.454       .  S
O382        H401   0.989       .  S
O382        H405   0.991       .  S
O383        H397   0.990       .  S
O383        H404   0.986       .  S
O384        C388   1.251       .  A
O385        C388   1.250       .  A
O386      Zr1368   2.437   1_455  S
O386        H396   0.990       .  S
O387      Zr1368   2.440   1_455  S
O387        H400   0.990       .  S
H389       O1110   0.965   1_455  S
H408       O1387   0.990       .  S
Zr411       O412   2.461       .  S
Zr411       O414   2.391       .  S
Zr411       O417   2.381       .  S
Zr411       O420   2.363       .  S
Zr411       O421   2.429       .  S
Zr411       O422   2.337       .  S
O412        H468   0.989       .  S
O412        H476   0.989       .  S
O413        C433   1.273       .  A
O415       Zr425   2.488       .  S
O415        C434   1.290       .  A
O416       Zr424   2.444       .  S
O416        C435   1.263       .  A
O417        C434   1.269       .  A
O418       Zr426   2.433       .  S
O418        C433   1.280       .  A
O419       Zr424   2.398       .  S
O419       Zr426   2.270       .  S
O420       Zr425   2.360       .  S
O421       Zr441   2.307       .  S
O421        H458   0.950       .  S
O422       Zr425   2.215       .  S
O422       Zr441   2.344       .  S
Zr423       O448   2.447   1_554  S
Zr423       O438   2.438   1_554  S
Zr423       O429   2.447       .  S
Zr423       O430   2.402   1_554  S
Zr424       O436   2.437       .  S
Zr424       O437   2.425       .  S
Zr424       O430   2.405       .  S
Zr425       O427   2.433       .  S
Zr425       O449   2.429       .  S
Zr425       O451   2.380       .  S
Zr425       O432   2.414       .  S
Zr426       O452   2.425       .  S
Zr426       O453   2.431       .  S
Zr426       O428   2.439       .  S
Zr426       O429   2.402   1_556  S
Zr426       O430   2.432       .  S
O427        H464   0.990       .  S
O428        H459   0.990       .  S
O428        H473   0.991       .  S
O430        H456   0.964       .  S
O431       Zr441   2.311       .  S
O432       Zr441   2.373       .  S
O432        H457   0.955       .  S
C433        C479   1.424       .  S
C434        C492   1.443       .  S
O436        H472   0.991       .  S
O437        C439   1.276       .  A
O438        C439   1.280       .  A
C439        C477   1.444       .  S
O440       Zr441   2.439       .  S
O440        H469   0.990       .  S
Zr441       O444   2.443       .  S
Zr441       O445   2.440       .  S
Zr441       O446   2.404       .  S
O442        C447   1.285       .  A
O443        H475   0.990       .  S
O444        H461   0.990       .  S
O445        H465   0.989       .  S
O445        H474   0.990       .  S
O446        C447   1.274       .  A
C447        C489   1.439       .  S
O448        H467   0.987       .  S
O448        H471   0.990       .  S
O449        H463   0.985       .  S
O449        H470   0.990       .  S
O450        C454   1.270       .  A
O451        C454   1.272       .  A
O452        H462   0.990       .  S
O453        H466   0.989       .  S
C477        C478   1.211       .  T
C479        C480   1.199       .  T
C481        C482   1.207       .  T
C483        C484   1.222       .  T
C485        C486   1.273       .  T
C487       C1307   1.589       .  S
C487        C488   1.274       .  T
C489        C490   1.209       .  T
C491        C492   1.212       .  T
C493        C494   1.207       .  T
C495       C1389   1.448       .  S
C495        C496   1.214       .  T
C497        C498   1.208       .  T
C499       C1004   1.266       .  T
C500       C1003   1.266       .  T
C501       C1006   1.280       .  T
C502       C1005   1.279       .  T
C503        C504   1.212       .  T
C505        C507   1.543       .  S
C505        C509   1.552       .  S
C505        C754   1.576       .  S
C506        C510   1.557       .  S
C506        C511   1.553       .  S
C506        C752   1.590       .  S
C507        C515   1.377       .  A
C507       C1014   1.418   1_455  A
C508        C519   1.370       .  A
C508       C1519   1.422   1_455  A
C509        C523   1.384       .  A
C509       C1520   1.422   1_455  A
C510       C1011   1.421       .  A
C510        C513   1.384       .  A
C511       C1516   1.421       .  A
C511        C517   1.381       .  A
C512       C1517   1.423       .  A
C512        C520   1.385       .  A
C513        N514   1.361       .  A
C513        H526   1.083       .  S
N514       C1019   1.354       .  A
N514        C755   1.406       .  S
C515       N1018   1.356   1_455  A
C515        H516   1.083       .  S
C517        N518   1.360       .  A
C517        H527   1.083       .  S
N518       C1527   1.354       .  A
N518        C750   1.404       .  S
C519       N1526   1.352   1_455  A
C519        H525   1.083       .  S
C520       N1529   1.363       .  A
C520        H522   1.083       .  S
N521       C1528   1.362   1_455  A
N521        C523   1.360       .  A
N521        C748   1.416       .  S
C523        H524   1.083       .  S
C528        C530   1.553   1_565  S
C528        C532   1.561       .  S
C528        C751   1.593       .  S
C529        C533   1.552       .  S
C529        C534   1.547       .  S
C529        C753   1.573       .  S
C530        C538   1.378   1_545  A
C531        C542   1.387       .  A
C531        C534   1.420       .  A
C532        C546   1.387       .  A
C532        C535   1.421       .  A
C533        C536   1.384       .  A
C534        C540   1.380       .  A
C535        C543   1.361       .  A
C536        N537   1.362       .  A
C536        H549   1.083       .  S
N537        C745   1.415       .  S
C538        H539   1.083       .  S
C540        N541   1.358       .  A
C540        H550   1.083       .  S
N541        C542   1.363       .  A
N541        C743   1.414       .  S
C542        H548   1.083       .  S
C543        N544   1.346       .  A
C543        H545   1.083       .  S
N544        C546   1.364       .  A
N544        C742   1.399       .  S
C546        H547   1.082       .  S
C551        C553   1.551       .  S
C551        C555   1.523       .  S
C551       C1747   1.581       .  S
C552        C556   1.550       .  S
C552        C558   1.561       .  S
C552        C737   1.592       .  S
C553        C561   1.379       .  A
C553        C556   1.424       .  A
C554        C565   1.383       .  A
C554        C557   1.422       .  A
C555        C569   1.359       .  A
C555        C558   1.418       .  A
C556        C559   1.376       .  A
C557        C563   1.379       .  A
C558        C566   1.388       .  A
C559        N560   1.356       .  A
C559        H572   1.083       .  S
N560        C561   1.360       .  A
N560        C756   1.406       .  S
C561       H1570   1.083       .  S
H562       C1569   1.083       .  S
C563        N564   1.358       .  A
C563        H573   1.083       .  S
N564        C565   1.361       .  A
N564        C734   1.410       .  S
C565       H1579   1.083       .  S
C566        N567   1.365       .  A
C566        H568   1.082       .  S
N567        C569   1.344       .  A
N567        C735   1.398       .  S
C569        H570   1.083       .  S
H571       C1573   1.083       .  S
C574        C576   1.562       .  S
C574        C578   1.564       .  S
C574        C738   1.592       .  S
C575        C579   1.546       .  S
C575        C581   1.565       .  S
C575        C740   1.579       .  S
C576        C584   1.389       .  A
C576        C579   1.419       .  A
C577        C588   1.387       .  A
C577        C580   1.419       .  A
C578        C592   1.388       .  A
C578        C581   1.423       .  A
C579        C582   1.380       .  A
C580        C586   1.369       .  A
C581        C589   1.393       .  A
C582        N583   1.357       .  A
C582        H595   1.083       .  S
N583        C584   1.364       .  A
N583        C746   1.415       .  S
C584        H585   1.082       .  S
C586        N587   1.350       .  A
C586        H596   1.083       .  S
N587        C588   1.364       .  A
N587        C730   1.406       .  S
C588        H594   1.082       .  S
C589        N590   1.366       .  A
C589        H591   1.082       .  S
N590        C592   1.364       .  A
N590        C732   1.428       .  S
C592        H593   1.083       .  S
Zr597       O598   2.470       .  S
Zr597       O851   2.497   1_554  S
Zr597       O600   2.376       .  S
Zr597       O603   2.400       .  S
Zr597       O857   2.440   1_554  S
Zr597       O606   2.331   1_554  S
Zr597       O607   2.416       .  S
Zr597       O608   2.316       .  S
O598        H654   0.988       .  S
O598        H662   0.988       .  S
O599       Zr849   2.400       .  S
O599        C619   1.274       .  A
O600        C873   1.257       .  A
O601       Zr611   2.469       .  S
O601       C1628   1.286   1_455  A
O602       Zr610   2.447       .  S
O602        C621   1.264       .  A
O603        C620   1.275       .  A
O604       Zr612   2.456       .  S
O604        C619   1.285       .  A
O605       Zr849   2.369       .  S
O605       Zr610   2.392       .  S
O605       Zr612   2.253       .  S
O606      Zr1619   2.324   1_556  S
O606       Zr864   2.400       .  S
O606       H1901   0.963       .  S
O607       Zr862   2.414   1_554  S
O607       Zr627   2.295       .  S
O607        H644   0.947       .  S
O608      Zr1619   2.209       .  S
O608       Zr627   2.344       .  S
Zr609       O634   2.451       .  S
Zr609       O880   2.386       .  S
Zr609       O888   2.357       .  S
Zr609      O1632   2.443   1_455  S
Zr609       O615   2.443       .  S
Zr609      O1624   2.400       .  S
Zr609       O870   2.457   1_455  S
Zr609      O1877   2.211   1_455  S
Zr610       O881   2.425       .  S
Zr610       O622   2.438       .  S
Zr610       O623   2.437       .  S
Zr610       O859   2.480       .  S
Zr610       O616   2.401       .  S
Zr610       O869   2.296       .  S
Zr611       O613   2.464       .  S
Zr611       O635   2.492       .  S
Zr611       O637   2.360   1_554  S
Zr611      O1614   2.319   1_454  S
Zr611       O867   2.379   1_554  S
Zr611       O618   2.437       .  S
Zr611      O1616   2.212   1_455  S
Zr612      O1646   2.420       .  S
Zr612      O1647   2.436       .  S
Zr612       O614   2.440       .  S
Zr612       O858   2.403       .  S
Zr612      O1623   2.407       .  S
Zr612       O616   2.446       .  S
O613        H650   0.990       .  S
O614        H645   0.990       .  S
O614        H659   0.991       .  S
O615       Zr863   2.431       .  S
O615      Zr1620   2.401       .  S
O616      Zr1617   2.406       .  S
O616        H642   0.964       .  S
O617      Zr1869   2.211   1_554  S
O617       Zr862   2.285   1_554  S
O617       Zr627   2.311       .  S
O618       Zr861   2.433   1_554  S
O618      Zr1635   2.374   1_455  S
O618        H643   0.958       .  S
C619        C736   1.432       .  S
C620       O1609   1.285       .  A
C620        C749   1.439       .  S
C621        O852   1.268       .  A
C621        C958   1.410       .  S
O622        H658   0.991       .  S
O623        C625   1.278       .  A
O624      Zr1617   2.433       .  S
O624        C625   1.278       .  A
C625        C733   1.447       .  S
O626       Zr627   2.439       .  S
O626        H655   0.990       .  S
Zr627       O630   2.446       .  S
Zr627       O631   2.432       .  S
Zr627       O632   2.406       .  S
Zr627      O1626   2.377       .  S
O628       Zr861   2.485   1_554  S
O628       C1641   1.290       .  A
O629       Zr862   2.463   1_554  S
O629        H898   0.989       .  S
O629        H661   0.990       .  S
O630        H647   0.990       .  S
O631        H651   0.989       .  S
O631       H1668   0.990       .  S
O632        C633   1.274       .  A
C633       O1636   1.291       .  A
C633       C1755   1.455       .  S
O634        H653   0.987       .  S
O634        H657   0.990       .  S
O635        H649   0.990       .  S
O635        H656   0.988   1_554  S
O636       Zr861   2.328       .  S
O636        C640   1.266       .  A
O637        C640   1.274       .  A
O638      Zr1620   2.423       .  S
O638        H648   0.990       .  S
O639      Zr1620   2.420       .  S
O639        H652   0.989       .  S
C640        C939   1.401       .  S
H641       O1866   0.964       .  S
H646        O881   0.984       .  S
H660       O1639   0.990       .  S
Zr663       O664   2.383       .  S
Zr663       O917   2.387   1_554  S
Zr663       O666   2.469   1_554  S
Zr663       O669   2.447       .  S
Zr663       O672   2.360   1_554  S
Zr663       O673   2.460       .  S
Zr663       O674   2.414       .  S
Zr663       O923   2.249   1_554  S
O664        H720   0.983       .  S
O664        H728   0.990       .  S
O665       Zr915   2.501       .  S
O665        C685   1.296       .  A
O666        C939   1.261       .  A
O667       Zr677   2.433       .  S
O667        C686   1.281       .  A
O668       Zr676   2.393       .  S
O668        C687   1.261       .  A
O669        C686   1.284       .  A
O670       Zr678   2.428       .  S
O670        C685   1.279       .  A
O671       Zr915   2.423       .  S
O671       Zr676   2.454       .  S
O671       Zr678   2.337       .  S
O672       Zr677   2.378   1_556  S
O672       Zr930   2.390       .  S
O672        H959   0.963       .  S
O673       Zr928   2.434   1_554  S
O673       Zr693   2.430       .  S
O673        H710   0.950       .  S
O674       Zr677   2.309       .  S
O674       Zr693   2.445       .  S
Zr675       O700   2.461       .  S
Zr675       O946   2.463       .  S
Zr675       O954   2.348       .  S
Zr675       O690   2.419       .  S
Zr675       O681   2.377       .  S
Zr675       O682   2.380       .  S
Zr675       O936   2.413       .  S
Zr675       O935   2.219       .  S
Zr676       O947   2.463       .  S
Zr676       O688   2.446       .  S
Zr676       O689   2.442       .  S
Zr676       O925   2.417       .  S
Zr676       O682   2.354       .  S
Zr676       O935   2.285       .  S
Zr677       O679   2.437       .  S
Zr677       O701   2.465       .  S
Zr677       O703   2.357       .  S
Zr677       O933   2.458       .  S
Zr677       O684   2.454       .  S
Zr678       O704   2.439       .  S
Zr678       O705   2.441       .  S
Zr678       O680   2.433       .  S
Zr678       O924   2.414       .  S
Zr678       O681   2.396       .  S
Zr678       O682   2.438       .  S
O679        H716   0.990       .  S
O680        H711   0.990       .  S
O680        H725   0.990       .  S
O681       Zr929   2.376       .  S
O682        H708   0.965       .  S
O683       Zr927   2.215       .  S
O683       Zr928   2.311   1_554  S
O683       Zr693   2.316       .  S
O684       Zr927   2.440       .  S
O684       Zr693   2.296       .  S
O684        H709   0.966       .  S
C685        C731   1.472       .  S
C686        C744   1.452       .  S
C687        O918   1.258       .  A
C687        C892   1.424       .  S
O688        H724   0.987       .  S
O689        C691   1.281       .  A
O690        C691   1.274       .  A
C691        C729   1.441       .  S
O692       Zr693   2.430       .  S
O692        H721   0.990       .  S
Zr693       O696   2.426       .  S
Zr693       O697   2.450       .  S
Zr693       O698   2.466       .  S
O694       Zr927   2.378       .  S
O694        C699   1.270       .  A
O695       Zr928   2.424       .  S
O695        H964   0.985   1_556  S
O695        H727   0.990       .  S
O696        H713   0.989       .  S
O697        H717   0.989       .  S
O697        H726   0.990       .  S
O698        C699   1.286       .  A
C699        C741   1.432       .  S
O700        H719   0.989       .  S
O700        H723   0.991       .  S
O701        H715   0.990       .  S
O701        H722   0.986       .  S
O702       Zr927   2.358       .  S
O702        C706   1.247       .  A
O703        C706   1.250       .  A
O704        H714   0.990       .  S
O705        H718   0.990       .  S
C706        C873   1.419       .  S
H707        O924   0.966       .  S
H712        O947   0.988       .  S
C729        C730   1.210       .  T
C731        C732   1.228       .  T
C733        C734   1.213       .  T
C735        C736   1.204       .  T
C737        C738   1.276       .  T
C739       C1559   1.579       .  S
C739        C740   1.268       .  T
C741        C742   1.204       .  T
C743        C744   1.216       .  T
C745        C746   1.218       .  T
C747       C1641   1.454       .  S
C747        C748   1.218       .  T
C749        C750   1.208       .  T
C755        C756   1.210       .  T
C757        C759   1.561       .  S
C757        C761   1.577   1_545  S
C757       C1006   1.599       .  S
C758        C762   1.549       .  S
C758        C763   1.542       .  S
C758       C1004   1.575       .  S
C759        C767   1.386       .  A
C759       C1266   1.421   1_455  A
C760        C771   1.384       .  A
C760       C1771   1.421   1_455  A
C761        C775   1.398       .  A
C761       C1772   1.420   1_455  A
C762       C1263   1.421       .  A
C762        C765   1.379       .  A
C763       C1768   1.419       .  A
C763        C769   1.376       .  A
C764       C1769   1.421       .  A
C764        C772   1.368       .  A
C765        N766   1.359       .  A
C765        H778   1.083       .  S
N766       C1271   1.359       .  A
N766       C1007   1.409       .  S
C767       N1270   1.362   1_455  A
C767        H768   1.082       .  S
C769        N770   1.355       .  A
C769        H779   1.083       .  S
N770       C1779   1.362       .  A
N770       C1002   1.409       .  S
C771       N1778   1.362   1_455  A
C771        H777   1.083       .  S
C772       N1781   1.349       .  A
C772        H774   1.083       .  S
N773       C1780   1.348       .  A
N773        C775   1.371   1_655  A
N773       C1000   1.413       .  S
C775        H776   1.082       .  S
C780        C782   1.539       .  S
C780        C784   1.543   1_545  S
C780       C1003   1.576       .  S
C781        C785   1.555       .  S
C781        C786   1.567       .  S
C781       C1005   1.596       .  S
C782        C790   1.372       .  A
C783        C794   1.370       .  A
C783        C786   1.423       .  A
C784        C798   1.377       .  A
C784        C787   1.423       .  A
C785        C788   1.382       .  A
C786        C792   1.388       .  A
C787        C795   1.379       .  A
C788        N789   1.360       .  A
C788        H801   1.082       .  S
N789        C997   1.405       .  S
C790        H791   1.083   1_545  S
C792        N793   1.365       .  A
C792        H802   1.082       .  S
N793        C794   1.351       .  A
N793        C995   1.408       .  S
C794        H800   1.083       .  S
C795        N796   1.360       .  A
C795        H797   1.083       .  S
N796        C798   1.356       .  A
N796        C994   1.407       .  S
C798        H799   1.083       .  S
C803        C805   1.552       .  S
C803        C807   1.559       .  S
C803       C1999   1.589       .  S
C804        C808   1.546       .  S
C804        C810   1.555       .  S
C804        C989   1.581       .  S
C805        C813   1.382       .  A
C805        C808   1.419       .  A
C806        C817   1.383       .  A
C806        C809   1.420       .  A
C807        C821   1.383       .  A
C807        C810   1.424       .  A
C808        C811   1.377       .  A
C809        C815   1.373       .  A
C810        C818   1.384       .  A
C811        N812   1.357       .  A
C811        H824   1.083       .  S
N812        C813   1.359       .  A
N812       C1008   1.408       .  S
C813       H1822   1.083       .  S
H814       C1821   1.083       .  S
C815        N816   1.354       .  A
C815        H825   1.083       .  S
N816        C817   1.361       .  A
N816        C986   1.406       .  S
C817       H1831   1.083       .  S
C818        N819   1.360       .  A
C818        H820   1.082       .  S
N819        C821   1.361       .  A
N819        C987   1.416       .  S
C821        H822   1.083       .  S
H823       C1825   1.082       .  S
C826        C828   1.551       .  S
C826        C830   1.525       .  S
C826        C990   1.581       .  S
C827        C831   1.548       .  S
C827        C833   1.566       .  S
C827        C992   1.590       .  S
C828        C836   1.379       .  A
C828        C831   1.423       .  A
C829        C840   1.376       .  A
C829        C832   1.424       .  A
C830        C844   1.362       .  A
C830        C833   1.420       .  A
C831        C834   1.376       .  A
C832        C838   1.376       .  A
C833        C841   1.390       .  A
C834        N835   1.356       .  A
C834        H847   1.083       .  S
N835        C836   1.359       .  A
N835        C998   1.405       .  S
C836        H837   1.083       .  S
C838        N839   1.356       .  A
C838        H848   1.083       .  S
N839        C840   1.357       .  A
N839        C982   1.402       .  S
C840        H846   1.083       .  S
C841        N842   1.366       .  A
C841        H843   1.082       .  S
N842        C844   1.345       .  A
N842        C984   1.401       .  S
C844        H845   1.083       .  S
Zr849       O850   2.467       .  S
Zr849       O852   2.479       .  S
Zr849       O855   2.460       .  S
Zr849       O858   2.383       .  S
Zr849       O859   2.479       .  S
Zr849       O860   2.350       .  S
O850        H906   0.989       .  S
O850        H914   0.990       .  S
O851        C871   1.296       .  A
O853       Zr863   2.403   1_655  S
O853       C1880   1.273       .  A
O854       Zr862   2.375       .  S
O854        C873   1.256   1_556  A
O855        C872   1.283       .  A
O856       Zr864   2.426       .  S
O856        C871   1.281       .  A
O857       Zr862   2.456       .  S
O857       Zr864   2.344       .  S
O858      Zr1871   2.390       .  S
O858       H1649   0.964       .  S
O859       Zr879   2.434       .  S
O859        H896   0.956       .  S
O860      Zr1871   2.254       .  S
O860       Zr879   2.351       .  S
Zr861       O886   2.463       .  S
Zr861      O1884   2.424   1_455  S
Zr861       O867   2.400       .  S
Zr861      O1876   2.380   1_455  S
Zr861      O1625   2.210   1_456  S
Zr862       O874   2.447       .  S
Zr862       O875   2.433       .  S
Zr862       O868   2.345       .  S
Zr863       O865   2.436       .  S
Zr863       O887   2.460       .  S
Zr863       O889   2.352       .  S
Zr863      O1866   2.387       .  S
Zr863       O870   2.457   1_455  S
Zr863      O1868   2.252   1_455  S
Zr864      O1898   2.434       .  S
Zr864      O1899   2.440       .  S
Zr864       O866   2.436       .  S
Zr864      O1875   2.377       .  S
Zr864       O868   2.434       .  S
O865        H902   0.990       .  S
O866        H897   0.990       .  S
O866        H911   0.990       .  S
O867      Zr1872   2.378   1_455  S
O868      Zr1869   2.381       .  S
O868        H894   0.963       .  S
O869      Zr1617   2.209       .  S
O869       Zr879   2.302       .  S
O870      Zr1887   2.297       .  S
O870        H895   0.967   1_655  S
C871        C988   1.453       .  S
C872       O1861   1.274       .  A
C872       C1001   1.445       .  S
O874        H910   0.988       .  S
O875        C877   1.279       .  A
O876      Zr1869   2.427       .  S
O876        C877   1.276       .  A
C877        C985   1.440       .  S
O878       Zr879   2.433       .  S
O878        H907   0.990       .  S
Zr879       O882   2.440       .  S
Zr879       O883   2.443       .  S
Zr879       O884   2.497       .  S
Zr879      O1878   2.300       .  S
O880       C1893   1.272   1_455  A
O881        H913   0.990       .  S
O882        H899   0.990       .  S
O883        H903   0.990       .  S
O883       H1920   0.990       .  S
O884        C885   1.292       .  A
C885       O1888   1.273       .  A
C885       C2007   1.452       .  S
O886        H905   0.988       .  S
O886        H909   0.990       .  S
O887        H901   0.990       .  S
O887        H908   0.986       .  S
O888        C892   1.251       .  A
O889        C892   1.250       .  A
O890      Zr1872   2.435   1_455  S
O890        H900   0.990       .  S
O891      Zr1872   2.438   1_455  S
O891        H904   0.990       .  S
H893       O1614   0.962   1_455  S
H912       O1891   0.990       .  S
Zr915       O916   2.460       .  S
Zr915       O918   2.395       .  S
Zr915       O921   2.391       .  S
Zr915       O924   2.361       .  S
Zr915       O925   2.423       .  S
Zr915       O926   2.337       .  S
O916        H972   0.989       .  S
O916        H980   0.989       .  S
O917        C937   1.280       .  A
O919       Zr929   2.482       .  S
O919        C938   1.290       .  A
O920       Zr928   2.452       .  S
O920        C939   1.268       .  A
O921        C938   1.273       .  A
O922       Zr930   2.487       .  S
O922        C937   1.294       .  A
O923       Zr928   2.263       .  S
O923       Zr930   2.168       .  S
O924       Zr929   2.366       .  S
O925       Zr945   2.304       .  S
O925        H962   0.945       .  S
O926       Zr929   2.214       .  S
O926       Zr945   2.346       .  S
Zr927       O952   2.442   1_554  S
Zr927       O942   2.427   1_554  S
Zr927       O933   2.463       .  S
Zr927       O934   2.406   1_554  S
Zr928       O940   2.437       .  S
Zr928       O941   2.417       .  S
Zr928       O934   2.392       .  S
Zr929       O931   2.434       .  S
Zr929       O953   2.434       .  S
Zr929       O955   2.380       .  S
Zr929       O936   2.414       .  S
Zr930       O956   2.399       .  S
Zr930       O957   2.430       .  S
Zr930       O932   2.440       .  S
Zr930       O933   2.428   1_556  S
Zr930       O934   2.437       .  S
O931        H968   0.990       .  S
O932        H963   0.990       .  S
O932        H977   0.989       .  S
O934        H960   0.964       .  S
O935       Zr945   2.312       .  S
O936       Zr945   2.372       .  S
O936        H961   0.955       .  S
C937        C983   1.433       .  S
C938        C996   1.443       .  S
O940        H976   0.991       .  S
O941        C943   1.274       .  A
O942        C943   1.276       .  A
C943        C981   1.434       .  S
O944       Zr945   2.439       .  S
O944        H973   0.990       .  S
Zr945       O948   2.443       .  S
Zr945       O949   2.442       .  S
Zr945       O950   2.406       .  S
O946        C951   1.286       .  A
O947        H979   0.990       .  S
O948        H965   0.990       .  S
O949        H969   0.989       .  S
O949        H978   0.989       .  S
O950        C951   1.274       .  A
C951        C993   1.440       .  S
O952        H971   0.987       .  S
O952        H975   0.990       .  S
O953        H967   0.985       .  S
O953        H974   0.990       .  S
O954        C958   1.270       .  A
O955        C958   1.272       .  A
O956        H966   0.991       .  S
O957        H970   0.990       .  S
C981        C982   1.206       .  T
C983        C984   1.206       .  T
C985        C986   1.209       .  T
C987        C988   1.218       .  T
C989        C990   1.269       .  T
C991       C1811   1.591       .  S
C991        C992   1.275       .  T
C993        C994   1.210       .  T
C995        C996   1.212       .  T
C997        C998   1.209       .  T
C999       C1893   1.451       .  S
C999       C1000   1.216       .  T
C1001      C1002   1.212       .  T
C1007      C1008   1.212       .  T
C1009      C1011   1.541       .  S
C1009      C1013   1.550       .  S
C1009      C1516   1.542       .  S
C1009      C1258   1.579       .  S
C1010      C1014   1.557       .  S
C1010      C1520   1.559       .  S
C1010      C1015   1.563   1_565  S
C1010      C1256   1.592       .  S
C1011      C1019   1.374       .  A
C1012      C1513   1.537   1_545  S
C1012      C1023   1.372       .  A
C1013      C1027   1.381       .  A
C1014      C1017   1.386       .  A
C1015      C1021   1.387       .  A
C1016      C1514   1.561       .  S
C1016      C1024   1.383       .  A
C1017      N1018   1.362       .  A
C1017      H1030   1.082       .  S
N1018      C1259   1.411   1_565  S
C1019      H1020   1.083       .  S
C1021      N1022   1.364       .  A
C1021      H1031   1.082       .  S
N1022      C1254   1.408       .  S
C1023      H1029   1.083       .  S
C1024      H1026   1.082       .  S
N1025      C1027   1.358       .  A
N1025      C1252   1.412       .  S
C1027      H1028   1.082       .  S
C1032      C1034   1.552       .  S
C1032      C1036   1.568       .  S
C1032      C1539   1.555       .  S
C1032      C1255   1.595       .  S
C1033      C1037   1.548       .  S
C1033      C1543   1.522   1_545  S
C1033      C1038   1.536       .  S
C1033      C1257   1.576   1_545  S
C1034      C1042   1.378       .  A
C1034      C1541   1.424       .  A
C1035      C1536   1.556   1_545  S
C1035      C1046   1.381       .  A
C1035      C1038   1.422       .  A
C1036      C1050   1.392       .  A
C1036      C1039   1.421       .  A
C1037      C1538   1.423       .  A
C1037      C1040   1.377       .  A
C1038      C1044   1.370       .  A
C1039      C1537   1.527       .  S
C1039      C1047   1.363       .  A
C1040      N1041   1.358       .  A
C1040      H1053   1.083       .  S
N1041      C1546   1.358       .  A
N1041      C1249   1.406       .  S
C1042      N1545   1.357       .  A
C1042      H1043   1.083       .  S
C1044      N1045   1.352       .  A
C1044      H1054   1.083       .  S
N1045      C1046   1.360       .  A
N1045      C1247   1.401       .  S
C1046      H1052   1.083       .  S
C1047      N1048   1.346       .  A
C1047      H1049   1.083       .  S
N1048      C1050   1.367       .  A
N1048      C1246   1.404       .  S
C1050      H1051   1.082       .  S
C1055      C1057   1.555   1_455  S
C1055      C1059   1.520   1_455  S
C1055      C1562   1.554   1_445  S
C1056      C1060   1.554       .  S
C1056      C1062   1.566       .  S
C1056      C1565   1.556   1_545  S
C1056      C1241   1.593       .  S
C1057      C1065   1.382   1_655  A
C1057      C1060   1.424       .  A
C1058      C1559   1.550   1_655  S
C1058      C1069   1.379   1_655  A
C1058      C1061   1.423       .  A
C1059      C1073   1.359   1_655  A
C1059      C1062   1.419       .  A
C1060      C1063   1.380       .  A
C1061      C1560   1.558       .  S
C1061      C1067   1.383       .  A
C1062      C1070   1.391       .  A
C1063      N1064   1.358       .  A
C1063      H1076   1.083       .  S
N1064      C1065   1.361   1_655  A
N1064      C1260   1.411       .  S
C1067      N1068   1.361       .  A
C1067      H1077   1.083       .  S
N1068      C1069   1.359   1_655  A
N1068      C1238   1.411       .  S
C1070      N1071   1.367       .  A
C1070      H1072   1.082       .  S
N1071      C1073   1.342   1_655  A
N1071      C1239   1.399       .  S
C1073      H1074   1.084       .  S
C1078      C1080   1.551       .  S
C1078      C1082   1.556       .  S
C1078      C1585   1.560   1_545  S
C1078      C1242   1.593       .  S
C1079      C1083   1.547       .  S
C1079      C1085   1.560       .  S
C1079      C1588   1.534   1_545  S
C1079      C1244   1.582       .  S
C1080      C1088   1.381       .  A
C1080      C1083   1.420       .  A
C1081      C1582   1.554       .  S
C1081      C1092   1.382       .  A
C1081      C1084   1.419       .  A
C1082      C1096   1.379       .  A
C1082      C1085   1.425       .  A
C1083      C1086   1.377       .  A
C1084      C1583   1.533       .  S
C1084      C1090   1.368       .  A
C1085      C1093   1.389       .  A
C1086      N1087   1.357       .  A
C1086      H1099   1.083       .  S
N1087      C1088   1.359       .  A
N1087      C1250   1.406       .  S
C1088      H1089   1.083       .  S
C1090      N1091   1.350       .  A
C1090      H1100   1.083       .  S
N1091      C1092   1.361       .  A
N1091      C1234   1.399       .  S
C1092      H1098   1.083       .  S
C1093      N1094   1.364       .  A
C1093      H1095   1.082       .  S
N1094      C1096   1.359       .  A
N1094      C1236   1.417       .  S
C1096      H1097   1.083       .  S
Zr1101     O1102   2.456       .  S
Zr1101     O1355   2.508   1_554  S
Zr1101     O1104   2.390       .  S
Zr1101     O1107   2.386       .  S
Zr1101     O1361   2.427   1_554  S
Zr1101     O1110   2.360       .  S
Zr1101     O1111   2.420       .  S
Zr1101     O1112   2.332       .  S
O1102      H1158   0.989       .  S
O1102      H1166   0.989       .  S
O1103     Zr1353   2.398       .  S
O1103      C1123   1.273       .  A
O1104      C1377   1.259       .  A
O1105     Zr1115   2.490       .  S
O1106     Zr1114   2.450       .  S
O1106      C1125   1.265       .  A
O1107      C1124   1.273       .  A
O1108     Zr1116   2.452       .  S
O1108      C1123   1.285   1_455  A
O1109     Zr1353   2.370       .  S
O1109     Zr1114   2.398       .  S
O1109     Zr1116   2.252   1_655  S
O1110     Zr1368   2.408   1_554  S
O1111     Zr1366   2.410   1_554  S
O1111     Zr1131   2.308       .  S
O1111      H1148   0.945       .  S
O1112     Zr1131   2.345       .  S
Zr1113     O1138   2.451       .  S
Zr1113     O1384   2.388       .  S
Zr1113     O1392   2.350       .  S
Zr1113     O1119   2.448       .  S
Zr1113     O1374   2.451       .  S
Zr1114     O1385   2.426       .  S
Zr1114     O1126   2.437       .  S
Zr1114     O1127   2.434       .  S
Zr1114     O1363   2.475       .  S
Zr1114     O1120   2.402   1_655  S
Zr1114     O1373   2.298       .  S
Zr1115     O1117   2.429       .  S
Zr1115     O1139   2.436       .  S
Zr1115     O1141   2.395   1_554  S
Zr1115     O1122   2.411       .  S
Zr1115     O1371   2.288       .  S
Zr1116     O1118   2.438       .  S
Zr1116     O1362   2.401       .  S
Zr1116     O1120   2.441       .  S
O1117      H1154   0.990       .  S
O1118      H1149   0.990       .  S
O1118      H1163   0.990       .  S
O1119     Zr1367   2.432       .  S
O1120      H1146   0.964       .  S
O1121     Zr1366   2.279   1_554  S
O1121     Zr1131   2.305       .  S
O1122     Zr1365   2.410   1_554  S
O1122      H1147   0.956       .  S
C1123      C1240   1.431       .  S
C1124      C1253   1.442       .  S
C1125      O1356   1.269       .  A
C1125      C1462   1.411       .  S
O1126      H1162   0.991       .  S
O1127      C1129   1.278       .  A
O1128      C1129   1.280       .  A
C1129      C1237   1.449       .  S
O1130     Zr1131   2.439       .  S
O1130      H1159   0.990       .  S
Zr1131     O1134   2.443       .  S
Zr1131     O1135   2.437   1_655  S
Zr1131     O1136   2.407       .  S
O1132     Zr1365   2.471   1_554  S
O1133     Zr1366   2.459   1_554  S
O1133      H1402   0.987       .  S
O1133      H1165   0.990       .  S
O1134      H1151   0.990       .  S
O1135      H1155   0.990       .  S
O1136      C1137   1.275   1_655  A
O1138      H1157   0.987       .  S
O1138      H1161   0.990       .  S
O1139      H1153   0.986       .  S
O1139      H1160   0.990       .  S
O1140     Zr1365   2.360       .  S
O1140      C1144   1.274       .  A
O1141      C1144   1.276       .  A
O1142      H1152   0.990       .  S
O1143      H1156   0.989       .  S
C1144      C1443   1.407       .  S
H1150      O1385   0.983       .  S
Zr1167     O1168   2.470       .  S
Zr1167     O1421   2.392   1_554  S
Zr1167     O1170   2.484   1_554  S
Zr1167     O1173   2.439       .  S
Zr1167     O1427   2.367   1_554  S
Zr1167     O1176   2.393       .  S
Zr1167     O1177   2.476       .  S
Zr1167     O1178   2.351       .  S
O1168      H1224   0.989       .  S
O1168      H1232   0.990   1_554  S
O1169     Zr1419   2.478       .  S
O1169      C1189   1.291       .  A
O1170      C1443   1.269       .  A
O1171     Zr1181   2.402       .  S
O1171      C1190   1.274       .  A
O1172     Zr1180   2.385       .  S
O1172      C1191   1.257       .  A
O1173      C1190   1.278       .  A
O1174     Zr1182   2.424       .  S
O1174      C1189   1.279       .  A
O1175     Zr1419   2.422       .  S
O1175     Zr1180   2.448       .  S
O1175     Zr1182   2.334       .  S
O1176     Zr1181   2.390       .  S
O1176     Zr1434   2.396   1_554  S
O1176      H1463   0.963       .  S
O1177     Zr1432   2.483   1_554  S
O1177     Zr1197   2.430       .  S
O1177      H1214   0.954       .  S
O1178     Zr1181   2.258       .  S
O1178     Zr1197   2.344       .  S
Zr1179     O1204   2.461       .  S
Zr1179     O1450   2.464       .  S
Zr1179     O1458   2.342       .  S
Zr1179     O1194   2.413       .  S
Zr1179     O1185   2.381       .  S
Zr1179     O1186   2.381       .  S
Zr1179     O1440   2.416       .  S
Zr1179     O1439   2.217       .  S
Zr1180     O1451   2.462       .  S
Zr1180     O1192   2.451       .  S
Zr1180     O1193   2.423       .  S
Zr1180     O1429   2.420       .  S
Zr1180     O1186   2.357       .  S
Zr1180     O1439   2.287       .  S
Zr1181     O1183   2.438       .  S
Zr1181     O1205   2.459       .  S
Zr1181     O1207   2.362       .  S
Zr1181     O1437   2.436       .  S
Zr1181     O1188   2.450       .  S
Zr1182     O1208   2.437       .  S
Zr1182     O1209   2.441       .  S
Zr1182     O1184   2.434       .  S
Zr1182     O1428   2.416       .  S
Zr1182     O1185   2.392       .  S
Zr1182     O1186   2.439       .  S
O1183      H1220   0.990       .  S
O1184      H1215   0.989       .  S
O1184      H1229   0.990       .  S
O1185     Zr1433   2.374       .  S
O1186      H1212   0.964       .  S
O1187     Zr1431   2.209       .  S
O1187     Zr1432   2.299   1_554  S
O1187     Zr1197   2.308       .  S
O1188     Zr1431   2.451       .  S
O1188     Zr1197   2.299       .  S
O1188      H1213   0.967       .  S
C1189      C1235   1.457       .  S
C1190      C1248   1.434       .  S
C1191      O1422   1.256       .  A
C1191      C1396   1.418       .  S
O1192      H1228   0.988       .  S
O1193      C1195   1.277       .  A
O1194      C1195   1.272       .  A
C1195      C1233   1.430       .  S
O1196     Zr1197   2.432       .  S
O1196      H1225   0.990       .  S
Zr1197     O1200   2.439       .  S
Zr1197     O1201   2.443       .  S
Zr1197     O1202   2.484       .  S
O1198     Zr1431   2.376       .  S
O1198      C1203   1.270       .  A
O1199     Zr1432   2.424       .  S
O1199      H1468   0.984   1_556  S
O1199      H1231   0.991       .  S
O1200      H1217   0.990       .  S
O1201      H1221   0.990       .  S
O1201      H1230   0.990       .  S
O1202      C1203   1.289       .  A
C1203      C1245   1.439       .  S
O1204      H1223   0.989       .  S
O1204      H1227   0.991       .  S
O1205      H1219   0.990       .  S
O1205      H1226   0.987       .  S
O1206     Zr1431   2.360       .  S
O1206      C1210   1.251       .  A
O1207      C1210   1.250       .  A
O1208      H1218   0.990       .  S
O1209      H1222   0.990       .  S
C1210      C1377   1.426       .  S
H1211      O1428   0.966       .  S
H1216      O1451   0.987       .  S
C1233      C1234   1.203       .  T
C1235      C1236   1.219       .  T
C1237      C1238   1.214       .  T
C1239      C1240   1.205       .  T
C1241      C1242   1.276       .  T
C1243      C1244   1.270       .  T
C1245      C1246   1.209       .  T
C1247      C1248   1.206       .  T
C1249      C1250   1.210       .  T
C1251      C1252   1.214       .  T
C1253      C1254   1.211       .  T
C1255      C1760   1.278       .  T
C1256      C1759   1.276       .  T
C1257      C1762   1.266       .  T
C1258      C1761   1.268       .  T
C1259      C1260   1.214       .  T
C1261      C1263   1.554       .  S
C1261      C1265   1.571       .  S
C1261      C1768   1.558       .  S
C1261      C1510   1.591       .  S
C1262      C1266   1.548       .  S
C1262      C1772   1.529   1_545  S
C1262      C1267   1.538       .  S
C1262      C1508   1.572       .  S
C1263      C1271   1.381       .  A
C1264      C1765   1.556       .  S
C1264      C1275   1.381       .  A
C1265      C1279   1.394       .  A
C1266      C1269   1.380       .  A
C1267      C1273   1.374       .  A
C1268      C1766   1.530       .  S
C1268      C1276   1.366       .  A
C1269      N1270   1.359       .  A
C1269      H1282   1.083       .  S
N1270      C1511   1.414       .  S
C1271      H1272   1.083       .  S
C1273      N1274   1.354       .  A
C1273      H1283   1.083       .  S
N1274      C1506   1.410       .  S
C1275      H1281   1.083       .  S
C1276      H1278   1.083       .  S
N1277      C1279   1.369       .  A
N1277      C1504   1.415       .  S
C1279      H1280   1.082       .  S
C1284      C1286   1.545       .  S
C1284      C1288   1.549       .  S
C1284      C1791   1.542       .  S
C1284      C1507   1.576       .  S
C1285      C1289   1.559       .  S
C1285      C1795   1.557   1_545  S
C1285      C1290   1.573       .  S
C1285      C1509   1.595       .  S
C1286      C1294   1.378       .  A
C1286      C1793   1.418       .  A
C1287      C1788   1.538       .  S
C1287      C1298   1.373       .  A
C1287      C1290   1.422       .  A
C1288      C1302   1.381       .  A
C1288      C1291   1.421       .  A
C1289      C1790   1.418       .  A
C1289      C1292   1.387       .  A
C1290      C1296   1.394       .  A
C1291      C1789   1.557       .  S
C1291      C1299   1.383       .  A
C1292      N1293   1.363       .  A
C1292      H1305   1.082       .  S
N1293      C1798   1.356       .  A
N1293      C1501   1.412       .  S
C1294      N1797   1.357       .  A
C1294      H1295   1.083       .  S
C1296      N1297   1.369       .  A
C1296      H1306   1.082       .  S
N1297      C1298   1.352       .  A
N1297      C1499   1.415       .  S
C1298      H1304   1.083       .  S
C1299      N1300   1.361       .  A
C1299      H1301   1.083       .  S
N1300      C1302   1.358       .  A
N1300      C1498   1.412       .  S
C1302      H1303   1.083       .  S
C1307      C1309   1.554   1_455  S
C1307      C1311   1.564   1_455  S
C1307      C1814   1.559   1_445  S
C1308      C1312   1.549       .  S
C1308      C1314   1.565       .  S
C1308      C1817   1.537   1_545  S
C1308      C1493   1.578       .  S
C1309      C1317   1.385   1_655  A
C1309      C1312   1.417       .  A
C1310      C1811   1.560   1_655  S
C1310      C1321   1.385   1_655  A
C1310      C1313   1.421       .  A
C1311      C1325   1.387       .  A
C1311      C1314   1.424       .  A
C1312      C1315   1.382       .  A
C1313      C1812   1.533       .  S
C1313      C1319   1.368       .  A
C1314      C1322   1.393       .  A
C1315      N1316   1.359       .  A
C1315      H1328   1.083       .  S
N1316      C1317   1.361   1_655  A
N1316      C1512   1.414       .  S
C1319      N1320   1.349       .  A
C1319      H1329   1.083       .  S
N1320      C1321   1.363   1_655  A
N1320      C1490   1.402       .  S
C1322      N1323   1.366       .  A
C1322      H1324   1.082       .  S
N1323      C1325   1.363       .  A
N1323      C1491   1.427       .  S
C1325      H1326   1.082   1_655  S
C1330      C1332   1.554       .  S
C1330      C1334   1.522       .  S
C1330      C1837   1.552   1_545  S
C1330      C1494   1.578       .  S
C1331      C1335   1.552       .  S
C1331      C1337   1.565       .  S
C1331      C1840   1.553   1_545  S
C1331      C1496   1.587       .  S
C1332      C1340   1.382       .  A
C1332      C1335   1.421       .  A
C1333      C1834   1.556       .  S
C1333      C1344   1.384       .  A
C1333      C1336   1.422       .  A
C1334      C1348   1.360       .  A
C1334      C1337   1.418       .  A
C1335      C1338   1.380       .  A
C1336      C1835   1.552       .  S
C1336      C1342   1.380       .  A
C1337      C1345   1.391       .  A
C1338      N1339   1.358       .  A
C1338      H1351   1.083       .  S
N1339      C1340   1.361       .  A
N1339      C1502   1.412       .  S
C1340      H1341   1.083       .  S
C1342      N1343   1.359       .  A
C1342      H1352   1.083       .  S
N1343      C1344   1.362       .  A
N1343      C1486   1.413       .  S
C1344      H1350   1.083       .  S
C1345      N1346   1.367       .  A
C1345      H1347   1.082       .  S
N1346      C1348   1.343       .  A
N1346      C1488   1.400       .  S
C1348      H1349   1.083       .  S
Zr1353     O1354   2.470       .  S
Zr1353     O1356   2.484       .  S
Zr1353     O1359   2.466       .  S
Zr1353     O1362   2.378   1_655  S
Zr1353     O1363   2.481       .  S
Zr1353     O1364   2.358       .  S
O1354      H1410   0.989       .  S
O1354      H1418   0.990       .  S
O1355      C1375   1.298       .  A
O1357     Zr1367   2.399       .  S
O1358     Zr1366   2.387       .  S
O1358      C1377   1.260   1_556  A
O1359      C1376   1.283       .  A
O1360     Zr1368   2.427       .  S
O1360      C1375   1.279       .  A
O1361     Zr1366   2.454       .  S
O1361     Zr1368   2.342       .  S
O1363     Zr1383   2.440       .  S
O1363      H1400   0.953       .  S
O1364     Zr1383   2.357       .  S
Zr1365     O1390   2.464       .  S
Zr1365     O1371   2.292   1_556  S
Zr1366     O1378   2.447       .  S
Zr1366     O1379   2.433       .  S
Zr1366     O1372   2.358       .  S
Zr1367     O1369   2.433       .  S
Zr1367     O1391   2.464       .  S
Zr1367     O1393   2.345       .  S
Zr1367     O1374   2.458       .  S
Zr1368     O1370   2.438       .  S
Zr1368     O1372   2.432       .  S
O1369      H1406   0.990       .  S
O1370      H1401   0.990       .  S
O1370      H1415   0.990       .  S
O1372      H1398   0.964       .  S
O1373     Zr1383   2.299       .  S
O1374      H1399   0.967       .  S
C1375      C1492   1.469       .  S
C1376      C1505   1.447       .  S
O1378      H1414   0.988       .  S
O1379      C1381   1.280       .  A
O1380      C1381   1.273       .  A
C1381      C1489   1.434       .  S
O1382     Zr1383   2.430       .  S
O1382      H1411   0.990       .  S
Zr1383     O1386   2.440       .  S
Zr1383     O1387   2.449       .  S
Zr1383     O1388   2.503       .  S
O1385      H1417   0.990       .  S
O1386      H1403   0.990       .  S
O1387      H1407   0.990       .  S
O1388      C1389   1.293       .  A
O1390      H1409   0.989       .  S
O1390      H1413   0.991       .  S
O1391      H1405   0.990       .  S
O1391      H1412   0.987       .  S
O1392      C1396   1.251       .  A
O1393      C1396   1.248       .  A
O1394      H1404   0.989       .  S
O1395      H1408   0.990       .  S
Zr1419     O1420   2.463       .  S
Zr1419     O1422   2.397       .  S
Zr1419     O1425   2.391       .  S
Zr1419     O1428   2.362       .  S
Zr1419     O1429   2.422       .  S
Zr1419     O1430   2.337       .  S
O1420      H1476   0.989       .  S
O1420      H1484   0.988       .  S
O1421      C1441   1.271       .  A
O1423     Zr1433   2.500       .  S
O1423      C1442   1.292       .  A
O1424     Zr1432   2.454       .  S
O1424      C1443   1.264       .  A
O1425      C1442   1.272       .  A
O1426     Zr1434   2.462       .  S
O1426      C1441   1.286       .  A
O1427     Zr1432   2.390       .  S
O1427     Zr1434   2.240       .  S
O1428     Zr1433   2.361       .  S
O1429     Zr1449   2.303       .  S
O1429      H1466   0.950       .  S
O1430     Zr1433   2.210       .  S
O1430     Zr1449   2.352       .  S
Zr1431     O1456   2.443   1_554  S
Zr1431     O1446   2.443   1_554  S
Zr1431     O1437   2.446       .  S
Zr1431     O1438   2.399   1_554  S
Zr1432     O1444   2.438       .  S
Zr1432     O1445   2.439       .  S
Zr1432     O1438   2.393       .  S
Zr1433     O1435   2.425       .  S
Zr1433     O1457   2.433       .  S
Zr1433     O1459   2.396       .  S
Zr1433     O1440   2.420       .  S
Zr1434     O1460   2.406       .  S
Zr1434     O1461   2.426       .  S
Zr1434     O1436   2.437       .  S
Zr1434     O1437   2.409   1_556  S
Zr1434     O1438   2.437       .  S
O1435      H1472   0.990       .  S
O1436      H1467   0.990       .  S
O1436      H1481   0.990       .  S
O1438      H1464   0.964       .  S
O1439     Zr1449   2.312       .  S
O1440     Zr1449   2.370       .  S
O1440      H1465   0.955       .  S
C1441      C1487   1.433       .  S
C1442      C1500   1.453       .  S
O1444      H1480   0.991       .  S
O1445      C1447   1.278       .  A
O1446      C1447   1.280       .  A
C1447      C1485   1.452       .  S
O1448     Zr1449   2.440       .  S
O1448      H1477   0.990       .  S
Zr1449     O1452   2.440       .  S
Zr1449     O1453   2.443       .  S
Zr1449     O1454   2.414       .  S
O1450      C1455   1.287       .  A
O1451      H1483   0.990       .  S
O1452      H1469   0.990       .  S
O1453      H1473   0.989       .  S
O1453      H1482   0.990       .  S
O1454      C1455   1.276       .  A
C1455      C1497   1.447       .  S
O1456      H1475   0.987       .  S
O1456      H1479   0.990       .  S
O1457      H1471   0.988       .  S
O1457      H1478   0.990       .  S
O1458      C1462   1.269       .  A
O1459      C1462   1.274       .  A
O1460      H1470   0.990       .  S
O1461      H1474   0.990       .  S
C1485      C1486   1.216       .  T
C1487      C1488   1.206       .  T
C1489      C1490   1.206       .  T
C1491      C1492   1.227       .  T
C1493      C1494   1.268       .  T
C1495      C1496   1.273       .  T
C1497      C1498   1.214       .  T
C1499      C1500   1.218       .  T
C1501      C1502   1.215       .  T
C1503      C1504   1.218       .  T
C1505      C1506   1.213       .  T
C1507      C2012   1.266       .  T
C1508      C2011   1.264       .  T
C1509      C2014   1.278       .  T
C1510      C2013   1.275       .  T
C1511      C1512   1.217       .  T
C1513      C1515   1.541       .  S
C1513      C1517   1.553       .  S
C1513      C1762   1.575       .  S
C1514      C1518   1.557       .  S
C1514      C1519   1.561       .  S
C1514      C1760   1.595       .  S
C1515      C1523   1.376       .  A
C1516      C1527   1.373       .  A
C1517      C1531   1.384       .  A
C1518      C1521   1.383       .  A
C1519      C1525   1.385       .  A
C1520      C1528   1.384       .  A
C1521      N1522   1.361       .  A
C1521      H1534   1.082       .  S
N1522      C1763   1.408       .  S
C1523      H1524   1.083       .  S
C1525      N1526   1.363       .  A
C1525      H1535   1.082       .  S
N1526      C1758   1.405       .  S
C1527      H1533   1.083       .  S
C1528      H1530   1.083       .  S
N1529      C1531   1.360       .  A
N1529      C1756   1.417       .  S
C1531      H1532   1.083       .  S
C1536      C1538   1.553   1_565  S
C1536      C1540   1.567       .  S
C1536      C1759   1.592       .  S
C1537      C1541   1.551       .  S
C1537      C1542   1.542       .  S
C1537      C1761   1.579       .  S
C1538      C1546   1.379       .  A
C1539      C1550   1.381       .  A
C1539      C1542   1.422       .  A
C1540      C1554   1.390       .  A
C1540      C1543   1.421       .  A
C1541      C1544   1.379       .  A
C1542      C1548   1.374       .  A
C1543      C1551   1.359       .  A
C1544      N1545   1.359       .  A
C1544      H1557   1.083       .  S
N1545      C1753   1.406       .  S
C1546      H1547   1.083       .  S
C1548      N1549   1.355       .  A
C1548      H1558   1.083       .  S
N1549      C1550   1.360       .  A
N1549      C1751   1.405       .  S
C1550      H1556   1.083       .  S
C1551      N1552   1.344       .  A
C1551      H1553   1.083       .  S
N1552      C1554   1.366       .  A
N1552      C1750   1.399       .  S
C1554      H1555   1.082       .  S
C1559      C1561   1.552   1_455  S
C1559      C1563   1.522   1_455  S
C1560      C1564   1.552       .  S
C1560      C1566   1.561       .  S
C1560      C1745   1.589       .  S
C1561      C1569   1.380   1_655  A
C1561      C1564   1.423       .  A
C1562      C1573   1.382   1_655  A
C1562      C1565   1.423       .  A
C1563      C1577   1.359       .  A
C1563      C1566   1.418       .  A
C1564      C1567   1.379       .  A
C1565      C1571   1.382       .  A
C1566      C1574   1.388       .  A
C1567      N1568   1.357       .  A
C1567      H1580   1.083       .  S
N1568      C1569   1.360   1_655  A
N1568      C1764   1.408       .  S
C1571      N1572   1.360       .  A
C1571      H1581   1.083       .  S
N1572      C1573   1.361   1_655  A
N1572      C1742   1.413       .  S
C1574      N1575   1.365       .  A
C1574      H1576   1.082       .  S
N1575      C1577   1.344       .  A
N1575      C1743   1.397       .  S
C1577      H1578   1.083   1_655  S
C1582      C1584   1.554       .  S
C1582      C1586   1.558       .  S
C1582      C1746   1.589       .  S
C1583      C1587   1.543       .  S
C1583      C1589   1.561       .  S
C1583      C1748   1.581       .  S
C1584      C1592   1.382       .  A
C1584      C1587   1.420       .  A
C1585      C1596   1.385       .  A
C1585      C1588   1.420       .  A
C1586      C1600   1.382       .  A
C1586      C1589   1.425       .  A
C1587      C1590   1.375       .  A
C1588      C1594   1.369       .  A
C1589      C1597   1.388       .  A
C1590      N1591   1.355       .  A
C1590      H1603   1.083       .  S
N1591      C1592   1.360       .  A
N1591      C1754   1.406       .  S
C1592      H1593   1.083       .  S
C1594      N1595   1.350       .  A
C1594      H1604   1.083       .  S
N1595      C1596   1.363       .  A
N1595      C1738   1.404       .  S
C1596      H1602   1.082       .  S
C1597      N1598   1.364       .  A
C1597      H1599   1.082       .  S
N1598      C1600   1.361       .  A
N1598      C1740   1.420       .  S
C1600      H1601   1.083       .  S
Zr1605     O1606   2.469       .  S
Zr1605     O1859   2.504   1_554  S
Zr1605     O1608   2.373       .  S
Zr1605     O1611   2.391       .  S
Zr1605     O1865   2.434   1_554  S
Zr1605     O1614   2.331   1_554  S
Zr1605     O1615   2.421       .  S
Zr1605     O1616   2.315       .  S
O1606      H1662   0.988       .  S
O1606      H1670   0.988       .  S
O1607     Zr1857   2.402       .  S
O1607      C1627   1.273       .  A
O1608      C1881   1.256       .  A
O1609     Zr1619   2.464       .  S
O1610     Zr1618   2.443       .  S
O1610      C1629   1.263       .  A
O1611      C1628   1.273       .  A
O1612     Zr1620   2.447       .  S
O1612      C1627   1.283   1_455  A
O1613     Zr1857   2.368       .  S
O1613     Zr1618   2.400       .  S
O1613     Zr1620   2.254   1_655  S
O1614     Zr1872   2.393       .  S
O1615     Zr1870   2.412   1_554  S
O1615     Zr1635   2.302       .  S
O1615      H1652   0.963       .  S
O1616     Zr1635   2.346       .  S
Zr1617     O1642   2.449       .  S
Zr1617     O1888   2.391       .  S
Zr1617     O1896   2.346       .  S
Zr1617     O1623   2.449       .  S
Zr1617     O1878   2.450       .  S
Zr1618     O1889   2.429       .  S
Zr1618     O1630   2.439       .  S
Zr1618     O1631   2.436       .  S
Zr1618     O1867   2.475       .  S
Zr1618     O1624   2.401   1_655  S
Zr1618     O1877   2.296       .  S
Zr1619     O1621   2.461       .  S
Zr1619     O1643   2.490       .  S
Zr1619     O1645   2.334   1_554  S
Zr1619     O1875   2.380   1_554  S
Zr1619     O1626   2.440       .  S
Zr1620     O1622   2.440       .  S
Zr1620     O1866   2.399       .  S
Zr1620     O1624   2.439       .  S
O1621      H1658   0.990       .  S
O1622      H1653   0.990       .  S
O1622      H1667   0.990       .  S
O1623     Zr1871   2.431       .  S
O1624      H1650   0.963       .  S
O1625     Zr1870   2.286   1_554  S
O1625     Zr1635   2.312       .  S
O1626     Zr1869   2.432   1_554  S
O1626      H1651   0.957       .  S
C1627      C1744   1.430       .  S
C1628      C1757   1.438       .  S
C1629      O1860   1.268       .  A
C1629      C1966   1.412       .  S
O1630      H1666   0.991       .  S
O1631      C1633   1.278       .  A
O1632      C1633   1.281       .  A
C1633      C1741   1.451       .  S
O1634     Zr1635   2.439       .  S
O1634      H1663   0.990       .  S
Zr1635     O1638   2.446       .  S
Zr1635     O1639   2.436   1_655  S
Zr1635     O1640   2.410       .  S
O1636     Zr1869   2.488   1_554  S
O1637     Zr1870   2.460   1_554  S
O1637      H1906   0.988       .  S
O1637      H1669   0.990       .  S
O1638      H1655   0.990       .  S
O1639      H1659   0.989       .  S
O1640      C1641   1.274   1_655  A
O1642      H1661   0.987       .  S
O1642      H1665   0.990       .  S
O1643      H1657   0.990       .  S
O1643      H1664   0.988   1_554  S
O1644     Zr1869   2.342       .  S
O1644      C1648   1.268       .  A
O1645      C1648   1.268       .  A
O1646      H1656   0.990       .  S
O1647      H1660   0.989       .  S
C1648      C1947   1.398       .  S
H1654      O1889   0.984       .  S
Zr1671     O1672   2.386       .  S
Zr1671     O1925   2.384   1_554  S
Zr1671     O1674   2.486   1_554  S
Zr1671     O1677   2.445       .  S
Zr1671     O1931   2.355   1_554  S
Zr1671     O1680   2.360       .  S
Zr1671     O1681   2.457       .  S
Zr1671     O1682   2.411       .  S
O1672      H1728   0.984       .  S
O1672      H1736   0.990       .  S
O1673     Zr1923   2.487       .  S
O1673      C1693   1.293       .  A
O1674      C1947   1.269       .  A
O1675     Zr1685   2.419       .  S
O1675      C1694   1.279       .  A
O1676     Zr1684   2.385       .  S
O1676      C1695   1.257       .  A
O1677      C1694   1.285       .  A
O1678     Zr1686   2.423       .  S
O1678      C1693   1.279       .  A
O1679     Zr1923   2.428       .  S
O1679     Zr1684   2.454       .  S
O1679     Zr1686   2.336       .  S
O1680     Zr1685   2.376       .  S
O1680     Zr1938   2.386   1_554  S
O1680      H1967   0.964       .  S
O1681     Zr1936   2.437   1_554  S
O1681     Zr1701   2.433       .  S
O1681      H1718   0.951       .  S
O1682     Zr1685   2.311       .  S
O1682     Zr1701   2.431       .  S
Zr1683     O1708   2.463       .  S
Zr1683     O1954   2.466       .  S
Zr1683     O1962   2.360       .  S
Zr1683     O1698   2.420       .  S
Zr1683     O1689   2.378       .  S
Zr1683     O1690   2.386       .  S
Zr1683     O1944   2.413       .  S
Zr1683     O1943   2.218       .  S
Zr1684     O1955   2.462       .  S
Zr1684     O1696   2.445       .  S
Zr1684     O1697   2.433       .  S
Zr1684     O1933   2.418       .  S
Zr1684     O1690   2.358       .  S
Zr1684     O1943   2.286       .  S
Zr1685     O1687   2.434       .  S
Zr1685     O1709   2.463       .  S
Zr1685     O1711   2.353       .  S
Zr1685     O1941   2.454       .  S
Zr1685     O1692   2.447       .  S
Zr1686     O1712   2.440       .  S
Zr1686     O1713   2.443       .  S
Zr1686     O1688   2.435       .  S
Zr1686     O1932   2.419       .  S
Zr1686     O1689   2.396       .  S
Zr1686     O1690   2.442       .  S
O1687      H1724   0.990       .  S
O1688      H1719   0.989       .  S
O1688      H1733   0.991       .  S
O1689     Zr1937   2.377       .  S
O1690      H1716   0.965       .  S
O1691     Zr1935   2.209       .  S
O1691     Zr1936   2.305   1_554  S
O1691     Zr1701   2.311       .  S
O1692     Zr1935   2.436       .  S
O1692     Zr1701   2.298       .  S
O1692      H1717   0.965       .  S
C1693      C1739   1.461       .  S
C1694      C1752   1.440       .  S
C1695      O1926   1.258       .  A
C1695      C1900   1.419       .  S
O1696      H1732   0.988       .  S
O1697      C1699   1.279       .  A
O1698      C1699   1.273       .  A
C1699      C1737   1.437       .  S
O1700     Zr1701   2.427       .  S
O1700      H1729   0.990       .  S
Zr1701     O1704   2.422       .  S
Zr1701     O1705   2.462       .  S
Zr1701     O1706   2.473       .  S
O1702     Zr1935   2.368       .  S
O1702      C1707   1.269       .  A
O1703     Zr1936   2.425       .  S
O1703      H1972   0.985   1_556  S
O1703      H1735   0.990       .  S
O1704      H1721   0.990       .  S
O1705      H1725   0.990       .  S
O1705      H1734   0.989       .  S
O1706      C1707   1.288       .  A
C1707      C1749   1.431       .  S
O1708      H1727   0.990       .  S
O1708      H1731   0.991       .  S
O1709      H1723   0.990       .  S
O1709      H1730   0.987       .  S
O1710     Zr1935   2.367       .  S
O1710      C1714   1.248       .  A
O1711      C1714   1.251       .  A
O1712      H1722   0.990       .  S
O1713      H1726   0.990       .  S
C1714      C1881   1.423       .  S
H1715      O1932   0.966       .  S
H1720      O1955   0.987       .  S
C1737      C1738   1.208       .  T
C1739      C1740   1.222       .  T
C1741      C1742   1.216       .  T
C1743      C1744   1.203       .  T
C1745      C1746   1.274       .  T
C1747      C1748   1.269       .  T
C1749      C1750   1.205       .  T
C1751      C1752   1.209       .  T
C1753      C1754   1.210       .  T
C1755      C1756   1.219       .  T
C1757      C1758   1.208       .  T
C1763      C1764   1.211       .  T
C1765      C1767   1.555       .  S
C1765      C1769   1.575   1_545  S
C1765      C2014   1.595       .  S
C1766      C1770   1.549       .  S
C1766      C1771   1.535       .  S
C1766      C2012   1.576       .  S
C1767      C1775   1.381       .  A
C1768      C1779   1.385       .  A
C1769      C1783   1.396       .  A
C1770      C1773   1.378       .  A
C1771      C1777   1.371       .  A
C1772      C1780   1.367       .  A
C1773      N1774   1.359       .  A
C1773      H1786   1.083       .  S
N1774      C2015   1.409       .  S
C1775      H1776   1.083       .  S
C1777      N1778   1.352       .  A
C1777      H1787   1.083       .  S
N1778      C2010   1.404       .  S
C1779      H1785   1.083       .  S
C1780      H1782   1.083       .  S
N1781      C1783   1.370       .  A
N1781      C2008   1.413       .  S
C1783      H1784   1.082       .  S
C1788      C1790   1.542       .  S
C1788      C1792   1.547   1_545  S
C1788      C2011   1.571       .  S
C1789      C1793   1.556       .  S
C1789      C1794   1.567       .  S
C1789      C2013   1.591       .  S
C1790      C1798   1.377       .  A
C1791      C1802   1.375       .  A
C1791      C1794   1.422       .  A
C1792      C1806   1.381       .  A
C1792      C1795   1.421       .  A
C1793      C1796   1.385       .  A
C1794      C1800   1.390       .  A
C1795      C1803   1.382       .  A
C1796      N1797   1.361       .  A
C1796      H1809   1.082       .  S
N1797      C2005   1.411       .  S
C1798      H1799   1.083       .  S
C1800      N1801   1.366       .  A
C1800      H1810   1.082       .  S
N1801      C1802   1.354       .  A
N1801      C2003   1.414       .  S
C1802      H1808   1.083       .  S
C1803      N1804   1.361       .  A
C1803      H1805   1.083       .  S
N1804      C1806   1.358       .  A
N1804      C2002   1.411       .  S
C1806      H1807   1.082       .  S
C1811      C1813   1.554   1_455  S
C1811      C1815   1.557   1_455  S
C1812      C1816   1.546       .  S
C1812      C1818   1.560       .  S
C1812      C1997   1.582       .  S
C1813      C1821   1.383   1_655  A
C1813      C1816   1.420       .  A
C1814      C1825   1.387   1_655  A
C1814      C1817   1.418       .  A
C1815      C1829   1.382       .  A
C1815      C1818   1.424       .  A
C1816      C1819   1.377       .  A
C1817      C1823   1.372       .  A
C1818      C1826   1.387       .  A
C1819      N1820   1.357       .  A
C1819      H1832   1.083       .  S
N1820      C1821   1.360   1_655  A
N1820      C2016   1.409       .  S
C1823      N1824   1.352       .  A
C1823      H1833   1.083       .  S
N1824      C1825   1.364   1_655  A
N1824      C1994   1.408       .  S
C1826      N1827   1.363       .  A
C1826      H1828   1.082       .  S
N1827      C1829   1.361       .  A
N1827      C1995   1.418       .  S
C1829      H1830   1.083   1_655  S
C1834      C1836   1.554       .  S
C1834      C1838   1.526       .  S
C1834      C1998   1.582       .  S
C1835      C1839   1.554       .  S
C1835      C1841   1.566       .  S
C1835      C2000   1.589       .  S
C1836      C1844   1.381       .  A
C1836      C1839   1.423       .  A
C1837      C1848   1.380       .  A
C1837      C1840   1.422       .  A
C1838      C1852   1.363       .  A
C1838      C1841   1.418       .  A
C1839      C1842   1.381       .  A
C1840      C1846   1.379       .  A
C1841      C1849   1.392       .  A
C1842      N1843   1.359       .  A
C1842      H1855   1.083       .  S
N1843      C1844   1.360       .  A
N1843      C2006   1.411       .  S
C1844      H1845   1.083       .  S
C1846      N1847   1.358       .  A
C1846      H1856   1.083       .  S
N1847      C1848   1.359       .  A
N1847      C1990   1.409       .  S
C1848      H1854   1.083       .  S
C1849      N1850   1.367       .  A
C1849      H1851   1.082       .  S
N1850      C1852   1.345       .  A
N1850      C1992   1.403       .  S
C1852      H1853   1.083       .  S
Zr1857     O1858   2.467       .  S
Zr1857     O1860   2.480       .  S
Zr1857     O1863   2.446       .  S
Zr1857     O1866   2.384   1_655  S
Zr1857     O1867   2.476       .  S
Zr1857     O1868   2.353       .  S
O1858      H1914   0.989       .  S
O1858      H1922   0.990       .  S
O1859      C1879   1.298       .  A
O1861     Zr1871   2.404       .  S
O1862     Zr1870   2.378       .  S
O1862      C1881   1.258   1_556  A
O1863      C1880   1.280       .  A
O1864     Zr1872   2.428       .  S
O1864      C1879   1.282       .  A
O1865     Zr1870   2.455       .  S
O1865     Zr1872   2.347       .  S
O1867     Zr1887   2.433       .  S
O1867      H1904   0.956       .  S
O1868     Zr1887   2.346       .  S
Zr1869     O1894   2.467       .  S
Zr1869     O1875   2.399       .  S
Zr1870     O1882   2.451       .  S
Zr1870     O1883   2.441       .  S
Zr1870     O1876   2.345       .  S
Zr1871     O1873   2.436       .  S
Zr1871     O1895   2.464       .  S
Zr1871     O1897   2.349       .  S
Zr1871     O1878   2.457       .  S
Zr1872     O1874   2.434       .  S
Zr1872     O1876   2.434       .  S
O1873      H1910   0.990       .  S
O1874      H1905   0.989       .  S
O1874      H1919   0.990       .  S
O1876      H1902   0.963       .  S
O1877     Zr1887   2.304       .  S
O1878      H1903   0.967       .  S
C1879      C1996   1.458       .  S
C1880      C2009   1.437       .  S
O1882      H1918   0.987       .  S
O1883      C1885   1.281       .  A
O1884      C1885   1.276       .  A
C1885      C1993   1.443       .  S
O1886     Zr1887   2.435       .  S
O1886      H1915   0.990       .  S
Zr1887     O1890   2.439       .  S
Zr1887     O1891   2.442       .  S
Zr1887     O1892   2.499       .  S
O1889      H1921   0.991       .  S
O1890      H1907   0.990       .  S
O1891      H1911   0.990       .  S
O1892      C1893   1.292       .  A
O1894      H1913   0.988       .  S
O1894      H1917   0.991       .  S
O1895      H1909   0.990       .  S
O1895      H1916   0.986       .  S
O1896      C1900   1.250       .  A
O1897      C1900   1.248       .  A
O1898      H1908   0.990       .  S
O1899      H1912   0.989       .  S
Zr1923     O1924   2.464       .  S
Zr1923     O1926   2.401       .  S
Zr1923     O1929   2.404       .  S
Zr1923     O1932   2.359       .  S
Zr1923     O1933   2.419       .  S
Zr1923     O1934   2.338       .  S
O1924      H1980   0.989       .  S
O1924      H1988   0.989       .  S
O1925      C1945   1.279       .  A
O1927     Zr1937   2.488       .  S
O1927      C1946   1.290       .  A
O1928     Zr1936   2.463       .  S
O1928      C1947   1.271       .  A
O1929      C1946   1.275       .  A
O1930     Zr1938   2.492       .  S
O1930      C1945   1.295       .  A
O1931     Zr1936   2.363       .  S
O1931     Zr1938   2.223       .  S
O1932     Zr1937   2.365       .  S
O1933     Zr1953   2.301       .  S
O1933      H1970   0.928       .  S
O1934     Zr1937   2.213       .  S
O1934     Zr1953   2.350       .  S
Zr1935     O1960   2.439   1_554  S
Zr1935     O1950   2.439   1_554  S
Zr1935     O1941   2.459       .  S
Zr1935     O1942   2.398   1_554  S
Zr1936     O1948   2.435       .  S
Zr1936     O1949   2.424       .  S
Zr1936     O1942   2.395       .  S
Zr1937     O1939   2.432       .  S
Zr1937     O1961   2.432       .  S
Zr1937     O1963   2.378       .  S
Zr1937     O1944   2.416       .  S
Zr1938     O1964   2.393       .  S
Zr1938     O1965   2.428       .  S
Zr1938     O1940   2.436       .  S
Zr1938     O1941   2.425   1_556  S
Zr1938     O1942   2.437       .  S
O1939      H1976   0.990       .  S
O1940      H1971   0.990       .  S
O1940      H1985   0.990       .  S
O1942      H1968   0.964       .  S
O1943     Zr1953   2.311       .  S
O1944     Zr1953   2.370       .  S
O1944      H1969   0.952       .  S
C1945      C1991   1.437       .  S
C1946      C2004   1.452       .  S
O1948      H1984   0.991       .  S
O1949      C1951   1.276       .  A
O1950      C1951   1.279       .  A
C1951      C1989   1.444       .  S
O1952     Zr1953   2.439       .  S
O1952      H1981   0.990       .  S
Zr1953     O1956   2.443       .  S
Zr1953     O1957   2.441       .  S
Zr1953     O1958   2.409       .  S
O1954      C1959   1.287       .  A
O1955      H1987   0.989       .  S
O1956      H1973   0.990       .  S
O1957      H1977   0.989       .  S
O1957      H1986   0.990       .  S
O1958      C1959   1.275       .  A
C1959      C2001   1.445       .  S
O1960      H1979   0.988       .  S
O1960      H1983   0.990       .  S
O1961      H1975   0.986       .  S
O1961      H1982   0.990       .  S
O1962      C1966   1.273       .  A
O1963      C1966   1.272       .  A
O1964      H1974   0.990       .  S
O1965      H1978   0.989       .  S
C1989      C1990   1.212       .  T
C1991      C1992   1.208       .  T
C1993      C1994   1.211       .  T
C1995      C1996   1.220       .  T
C1997      C1998   1.270       .  T
C1999      C2000   1.274       .  T
C2001      C2002   1.213       .  T
C2003      C2004   1.217       .  T
C2005      C2006   1.214       .  T
C2007      C2008   1.216       .  T
C2009      C2010   1.208       .  T
C2015      C2016   1.212       .  T
