geometry optimzed in LAMMPS
_audit_creation_date              2020-11-30 
_audit_creation_method            'lammps2cif' 
_symmetry_space_group_name_H-M    'P1' 
_symmetry_Int_Tables_number       1 
_symmetry_cell_setting            triclinic 
loop_ 
_symmetry_equiv_pos_as_xyz 
  x,y,z 
_cell_length_a                    41.57640404 
_cell_length_b                    41.63758009726871 
_cell_length_c                    57.92064368540223 
_cell_angle_alpha                 89.94126560149991 
_cell_angle_beta                  89.83908383770611 
_cell_angle_gamma                 121.11353447496566 
loop_ 
_atom_site_label 
_atom_site_type_symbol 
_atom_site_fract_x 
_atom_site_fract_y 
_atom_site_fract_z 
_atom_site_charge 
In1        In  0.46271513  0.32125042  0.94405941     1.36900
C2          C  0.50352409  0.37769305  0.97176758     0.77000
O3          O  0.44638183  0.36112935  0.93013206    -0.61500
O4          O  0.40329787  0.30443246  0.93340461    -0.52400
C5          C  0.50033488  0.31214365  0.90935321     0.69600
O6          O  0.51159389  0.34214872  0.92013686    -0.47200
C7          C  0.45136051  0.27177674  0.97762687     0.74300
O8          O  0.51441441  0.37520279  0.95190430    -0.59100
O9          O  0.42447700  0.27000012  0.96637636    -0.49200
O10         O  0.46998522  0.35316566  0.97664621    -0.55500
C11         C  0.41189202  0.33750399  0.92859688     0.84500
O12         O  0.46825024  0.28583306  0.91565356    -0.57400
O13         O  0.48328614  0.29683633  0.97062146    -0.60700
In14       In  0.46489183  0.32388436  0.57959804     1.36900
C15         C  0.45958397  0.27158589  0.55028859     0.77000
O16         O  0.46218895  0.35393358  0.54816036    -0.61500
O17         O  0.51301586  0.37869824  0.56720438    -0.52400
C18         C  0.41196697  0.33677029  0.59498539     0.69600
O19         O  0.40410219  0.30600471  0.58590156    -0.47200
C20         C  0.50174290  0.31691094  0.61534321     0.74300
O21         O  0.43220515  0.26603741  0.56279773    -0.59100
O22         O  0.51557585  0.34483247  0.60203906    -0.49200
O23         O  0.48867293  0.30321362  0.55303897    -0.55500
C24         C  0.49595531  0.38034946  0.54967373     0.84500
O25         O  0.44662062  0.35903850  0.59785733    -0.57400
O26         O  0.46797501  0.29257355  0.61103712    -0.60700
In27       In  0.65932561  0.14299887  0.58205965     1.36900
C28         C  0.71208821  0.18574995  0.55082502     0.77000
O29         O  0.62380004  0.10711519  0.55281684    -0.61500
O30         O  0.61458944  0.14945952  0.56545301    -0.52400
C31         C  0.64842811  0.07826201  0.59797444     0.69600
O32         O  0.68098941  0.10587651  0.59389432    -0.47200
C33         C  0.66059017  0.18164435  0.61927344     0.74300
O34         O  0.70381898  0.15280714  0.55557030    -0.59100
O35         O  0.63188316  0.16267916  0.60696355    -0.49200
O36         O  0.69649923  0.19787546  0.56387654    -0.55500
C37         C  0.60624468  0.12409883  0.55074362     0.84500
O38         O  0.62248446  0.08533898  0.59637761    -0.57400
O39         O  0.68858075  0.17939647  0.61310264    -0.60700
In40       In  0.48095252  0.14174441  0.44568070     1.36900
C41         C  0.51401839  0.12158085  0.47705671     0.77000
O42         O  0.50192668  0.19138345  0.46891392    -0.61500
O43         O  0.44321133  0.15397115  0.46739504    -0.52400
C44         C  0.52012461  0.18514843  0.40937447     0.69600
O45         O  0.52158249  0.15724139  0.41620133    -0.47200
C46         C  0.42645692  0.07578987  0.42976390     0.74300
O47         O  0.53200234  0.14509937  0.46128960    -0.59100
O48         O  0.42016609  0.10145091  0.43529898    -0.49200
O49         O  0.47905469  0.10740208  0.47611969    -0.55500
C50         C  0.47015542  0.18247260  0.47692674     0.84500
O51         O  0.49586981  0.18919617  0.41997532    -0.57400
O52         O  0.46053184  0.08546183  0.43053534    -0.60700
In53       In  0.47550489  0.14082323  0.07874515     1.36900
C54         C  0.51296576  0.12721959  0.04679506     0.77000
O55         O  0.41565050  0.09536339  0.08825858    -0.61500
O56         O  0.45901741  0.08318858  0.09088551    -0.52400
C57         C  0.51435635  0.18316828  0.11535602     0.69600
O58         O  0.51672615  0.15621825  0.10776739    -0.47200
C59         C  0.45830961  0.18045884  0.05002536     0.74300
O60         O  0.52928414  0.15240452  0.06185539    -0.59100
O61         O  0.43366593  0.15385856  0.06225410    -0.49200
O62         O  0.47771062  0.10870712  0.04846111    -0.55500
C63         C  0.42431557  0.07078753  0.09183320     0.84500
O64         O  0.48886398  0.18625182  0.10579158    -0.57400
O65         O  0.49115141  0.18695636  0.05294467    -0.60700
In66       In  0.65326318  0.52113129  0.07299718     1.36900
C67         C  0.60439188  0.47562105  0.04174126     0.77000
O68         O  0.61266708  0.53636443  0.08639907    -0.61500
O69         O  0.67051024  0.57790841  0.08846702    -0.52400
C70         C  0.65151175  0.47827884  0.10833152     0.69600
O71         O  0.68179206  0.50643229  0.10115914    -0.47200
C72         C  0.70905136  0.54961482  0.04157399     0.74300
O73         O  0.62379104  0.46672307  0.05380344    -0.59100
O74         O  0.68278142  0.55625073  0.04147467    -0.49200
O75         O  0.60946313  0.50745525  0.04619434    -0.55500
C76         C  0.63691699  0.56974784  0.09109969     0.84500
O77         O  0.62272118  0.47389534  0.09825680    -0.57400
O78         O  0.70899786  0.53154776  0.05911650    -0.60700
C79         C  0.65904729  0.34285802  0.20895333     0.85900
C80         C  0.65243488  0.37191052  0.19695038    -0.54400
C81         C  0.65141315  0.37040110  0.17338207     0.08800
C82         C  0.65622269  0.33837834  0.16369150     0.19800
C83         C  0.62756674  0.30438836  0.19940598    -0.55100
C84         C  0.62539600  0.30186555  0.17567763     0.08900
C85         C  0.69477465  0.34729343  0.19722443    -0.54600
C86         C  0.69393659  0.34558418  0.17358674     0.09500
H87         H  0.64899094  0.39240937  0.20660981     0.14000
H88         H  0.65513561  0.33664756  0.14456890    -0.00300
H89         H  0.60882630  0.28108672  0.21053054     0.14300
H90         H  0.71847779  0.35036488  0.20683300     0.14100
C91         C  0.66270831  0.34144974  0.31270864     0.85900
C92         C  0.69811315  0.34320217  0.32303015    -0.54400
C93         C  0.69835926  0.34062911  0.34666470     0.08800
C94         C  0.66201538  0.33530286  0.35780026     0.19800
C95         C  0.63019524  0.30352417  0.32237894    -0.55100
C96         C  0.62929519  0.30018361  0.34601707     0.08900
C97         C  0.65907825  0.37154986  0.32584352    -0.54600
C98         C  0.65895759  0.36909196  0.34938423     0.09500
H99         H  0.72080864  0.34572566  0.31253132     0.14000
H100        H  0.66182251  0.33257066  0.37684944    -0.00300
H101        H  0.60966090  0.28111229  0.31137878     0.14300
H102        H  0.65633771  0.39300149  0.31693861     0.14100
In103      In  0.65432624  0.51507733  0.45109435     1.36900
C104        C  0.59837673  0.47948123  0.48158905     0.77000
O105        O  0.68226187  0.49759926  0.47672860    -0.61500
O106        O  0.70759244  0.55582105  0.47050368    -0.52400
C107        C  0.65794732  0.47578019  0.41516600     0.69600
O108        O  0.62778316  0.47071759  0.42362668    -0.47200
C109        C  0.64190725  0.56760748  0.43476286     0.74300
O110        O  0.60806796  0.46296140  0.46747069    -0.59100
O111        O  0.67465097  0.57459913  0.43916812    -0.49200
O112        O  0.61794198  0.51473298  0.48037059    -0.55500
C113        C  0.70768632  0.53024975  0.48219438     0.84500
O114        O  0.68691485  0.50319776  0.42386958    -0.57400
O115        O  0.61666751  0.53366592  0.43708947    -0.60700
In116      In  0.84125003  0.52792685  0.94263360     1.36900
C117        C  0.86347055  0.49467225  0.97217843     0.77000
O118        O  0.89295472  0.53756956  0.92461310    -0.61500
O119        O  0.88875036  0.58529538  0.92979993    -0.52400
C120        C  0.78925623  0.47622959  0.91394495     0.69600
O121        O  0.78831117  0.47302835  0.93556716    -0.47200
C122        C  0.80664855  0.55436718  0.96953898     0.74300
O123        O  0.83768458  0.47653476  0.95770597    -0.59100
O124        O  0.82526303  0.54059436  0.97694579    -0.49200
O125        O  0.87844282  0.52976622  0.97102182    -0.55500
C126        C  0.90915697  0.57268537  0.92313698     0.84500
O127        O  0.81637982  0.50718035  0.90679017    -0.57400
O128        O  0.80739705  0.55720567  0.94776547    -0.60700
In129      In  0.84487649  0.34632644  0.07345137     1.36900
C130        C  0.86651607  0.40165104  0.04284765     0.77000
O131        O  0.88031629  0.32216245  0.08485780    -0.61500
O132        O  0.90238659  0.38056548  0.08848451    -0.52400
C133        C  0.80403893  0.34610536  0.10966630     0.69600
O134        O  0.83066796  0.37537517  0.10068960    -0.47200
C135        C  0.80333531  0.29366759  0.04192267     0.74300
O136        O  0.83984483  0.39201604  0.05684587    -0.59100
O137        O  0.83333264  0.29766482  0.05001067    -0.49200
O138        O  0.88305921  0.38366335  0.04490692    -0.55500
C139        C  0.90833123  0.35388613  0.08986978     0.84500
O140        O  0.80022714  0.31619659  0.10147169    -0.57400
O141        O  0.79334173  0.31431518  0.05143127    -0.60700
In142      In  0.65694975  0.14577618  0.94013589     1.36900
C143        C  0.60514894  0.12870004  0.97237544     0.77000
O144        O  0.61726373  0.08777327  0.92706561    -0.61500
O145        O  0.67265560  0.10175168  0.93511748    -0.52400
C146        C  0.66030542  0.18170943  0.90089055     0.69600
O147        O  0.63127812  0.16428254  0.91320725    -0.47200
C148        C  0.71320687  0.19509607  0.96734703     0.74300
O149        O  0.61064557  0.15085516  0.95591009    -0.59100
O150        O  0.71431731  0.16882954  0.95718581    -0.49200
O151        O  0.62536210  0.11429674  0.97177439    -0.55500
C152        C  0.63997439  0.07650240  0.92920380     0.84500
O153        O  0.68752168  0.17914713  0.90805713    -0.57400
O154        O  0.68446416  0.19651588  0.96264816    -0.60700
C155        C  0.65373780  0.32792673  0.70985839     0.85900
C156        C  0.65348406  0.29251630  0.70196842    -0.54400
C157        C  0.65149686  0.28735519  0.67869505     0.08800
C158        C  0.64712209  0.31717133  0.66509693     0.19800
C159        C  0.68530371  0.35994830  0.69528332    -0.55100
C160        C  0.68175501  0.35574195  0.67161315     0.08900
C161        C  0.61640038  0.32163742  0.69948816    -0.54600
C162        C  0.61318744  0.31675345  0.67600297     0.09500
H163        H  0.65536457  0.27324991  0.71370884     0.14000
H164        H  0.64198657  0.31159007  0.64658882    -0.00300
H165        H  0.70902698  0.38359062  0.70344672     0.14300
H166        H  0.59389746  0.32038442  0.70973916     0.14100
C167        C  0.65489298  0.33031145  0.81293040     0.85900
C168        C  0.68603485  0.36219757  0.82765897    -0.54400
C169        C  0.68249452  0.35678257  0.85125844     0.08800
C170        C  0.64849618  0.31778282  0.85757025     0.19800
C171        C  0.65533876  0.29508649  0.82015335    -0.55100
C172        C  0.65347017  0.28896824  0.84324032     0.08900
C173        C  0.61722850  0.32293504  0.82372039    -0.54600
C174        C  0.61403829  0.31710253  0.84724248     0.09500
H175        H  0.70920481  0.38716766  0.81971063     0.14000
H176        H  0.64447848  0.31215035  0.87618227    -0.00300
H177        H  0.65756004  0.27646642  0.80799007     0.14300
H178        H  0.59458237  0.32149624  0.81371335     0.14100
In179      In  0.84741210  0.51490497  0.57847897     1.36900
C180        C  0.86070523  0.47507437  0.54843222     0.77000
O181        O  0.81270477  0.50575276  0.54714824    -0.61500
O182        O  0.82584933  0.55309387  0.56782483    -0.52400
C183        C  0.79903073  0.47322911  0.61228766     0.69600
O184        O  0.82529617  0.46901808  0.60531606    -0.47200
C185        C  0.91784922  0.56629019  0.59047494     0.74300
O186        O  0.83281658  0.46074609  0.56186467    -0.59100
O187        O  0.89598456  0.57485929  0.58104207    -0.49200
O188        O  0.88229318  0.50996015  0.55061250    -0.55500
C189        C  0.80897819  0.53350110  0.55032788     0.84500
O190        O  0.80024676  0.50191988  0.60414217    -0.57400
O191        O  0.90192034  0.53243356  0.59662848    -0.60700
In192      In  0.84668098  0.33053311  0.44378867     1.36900
C193        C  0.80440893  0.27391659  0.47288392     0.77000
O194        O  0.87484041  0.36202697  0.47602522    -0.61500
O195        O  0.83494878  0.37213892  0.46018314    -0.52400
C196        C  0.91313997  0.34502378  0.42805281     0.69600
O197        O  0.88558211  0.31184737  0.42999672    -0.47200
C198        C  0.80714422  0.33496351  0.40867109     0.74300
O199        O  0.83956552  0.29364879  0.47448062    -0.59100
O200        O  0.82982162  0.36250779  0.42087395    -0.49200
O201        O  0.79169197  0.27983987  0.45469924    -0.55500
C202        C  0.85734473  0.37918808  0.47664140     0.84500
O203        O  0.90534111  0.36995669  0.43176541    -0.57400
O204        O  0.80681995  0.30500700  0.41321554    -0.60700
In205      In  0.50855829  0.85081795  0.94867052     1.36900
C206        C  0.47210609  0.87048821  0.97731191     0.77000
O207        O  0.52437572  0.80647938  0.95269306    -0.61500
O208        O  0.52060393  0.83365045  0.98249245    -0.52400
C209        C  0.46266216  0.80713992  0.91523248     0.69600
O210        O  0.45336039  0.80331482  0.93622698    -0.47200
C211        C  0.56236326  0.91720886  0.93317157     0.74300
O212        O  0.45585833  0.84491893  0.96250364    -0.59100
O213        O  0.56960357  0.89328079  0.94101258    -0.49200
O214        O  0.50737685  0.88698892  0.97692388    -0.55500
C215        C  0.52487334  0.80815385  0.97443140     0.84500
O216        O  0.49581405  0.83365077  0.91127589    -0.57400
O217        O  0.52784047  0.90555850  0.93138952    -0.60700
In218      In  0.31821870  0.83790291  0.07829000     1.36900
C219        C  0.36952423  0.85838992  0.04594419     0.77000
O220        O  0.29288290  0.79014386  0.05357335    -0.61500
O221        O  0.26014391  0.81386883  0.06230100    -0.52400
C222        C  0.31304107  0.79612523  0.11503855     0.69600
O223        O  0.34167025  0.81283557  0.10230596    -0.47200
C224        C  0.34053540  0.90873419  0.09056009     0.74300
O225        O  0.36585780  0.83657399  0.06223577    -0.59100
O226        O  0.30768675  0.88590366  0.08345139    -0.49200
O227        O  0.34650865  0.86948890  0.04613542    -0.55500
C228        C  0.26301253  0.79009371  0.05025243     0.84500
O229        O  0.28747382  0.80280153  0.10999476    -0.57400
O230        O  0.36012688  0.89399505  0.09357770    -0.60700
In231      In  0.32291463  0.46844370  0.94268530     1.36900
C232        C  0.26926320  0.45580828  0.97322345     0.77000
O233        O  0.35496204  0.46786923  0.97373664    -0.61500
O234        O  0.36986898  0.52019313  0.95904331    -0.52400
C235        C  0.33415106  0.41562670  0.92590443     0.69600
O236        O  0.30130054  0.40919027  0.92950702    -0.47200
C237        C  0.32560769  0.51196684  0.90773980     0.74300
O238        O  0.27736574  0.43127799  0.96845960    -0.59100
O239        O  0.35416460  0.51609997  0.91799769    -0.49200
O240        O  0.28504311  0.48429584  0.96034323    -0.55500
C241        C  0.37574943  0.50292206  0.97472000     0.84500
O242        O  0.35970022  0.44929103  0.92854782    -0.57400
O243        O  0.29522743  0.48272822  0.91373739    -0.60700
In244      In  0.50238666  0.65439475  0.07680279     1.36900
C245        C  0.51351640  0.70522875  0.04482365     0.77000
O246        O  0.50424706  0.62079714  0.04724397    -0.61500
O247        O  0.45135337  0.60442788  0.06205440    -0.52400
C248        C  0.55609846  0.64426377  0.09316697     0.69600
O249        O  0.56268792  0.67624004  0.08705382    -0.47200
C250        C  0.46589172  0.66186620  0.11247249     0.74300
O251        O  0.48168601  0.68267859  0.05330555    -0.59100
O252        O  0.45664930  0.63070575  0.10357438    -0.49200
O253        O  0.54006639  0.70333937  0.05383905    -0.55500
C254        C  0.46925844  0.59876934  0.04658346     0.84500
O255        O  0.52182973  0.61906982  0.09317874    -0.57400
O256        O  0.49554879  0.68932324  0.10420485    -0.60700
In257      In  0.31682034  0.46426029  0.58083182     1.36900
C258        C  0.36224038  0.50670364  0.54694395     0.77000
O259        O  0.35797617  0.44772512  0.59062246    -0.61500
O260        O  0.30017127  0.40784151  0.59674671    -0.52400
C261        C  0.32313556  0.50765264  0.61672861     0.69600
O262        O  0.35060448  0.50936201  0.60634398    -0.47200
C263        C  0.25841173  0.43738951  0.55223578     0.74300
O264        O  0.34563065  0.51745223  0.56014641    -0.59100
O265        O  0.27547212  0.42027076  0.55617450    -0.49200
O266        O  0.35634786  0.47455491  0.55147095    -0.55500
C267        C  0.33370028  0.41493681  0.59683085     0.84500
O268        O  0.29158226  0.48075437  0.61022630    -0.57400
O269        O  0.26814412  0.46539193  0.56501121    -0.60700
In270      In  0.13586312  0.46875509  0.07884052     1.36900
C271        C  0.11592318  0.50012078  0.04664609     0.77000
O272        O  0.18353271  0.48872389  0.05382231    -0.61500
O273        O  0.15527654  0.43133716  0.06243926    -0.52400
C274        C  0.17652940  0.50600405  0.11594248     0.69600
O275        O  0.15959317  0.51742489  0.10360068    -0.47200
C276        C  0.06655221  0.41922102  0.09317723     0.74300
O277        O  0.14117507  0.51895302  0.06127995    -0.59100
O278        O  0.08867378  0.40918818  0.08578814    -0.49200
O279        O  0.10040761  0.46507653  0.04874411    -0.55500
C280        C  0.18078999  0.45757250  0.05042335     0.84500
O281        O  0.17117167  0.47441983  0.11002159    -0.57400
O282        O  0.08146508  0.45412122  0.09550250    -0.60700
In283      In  0.51128685  0.65870563  0.44768066     1.36900
C284        C  0.46145018  0.60598783  0.47601059     0.77000
O285        O  0.53029014  0.62074983  0.43482532    -0.61500
O286        O  0.57182727  0.67810818  0.43818628    -0.52400
C287        C  0.47435615  0.66368612  0.41123013     0.69600
O288        O  0.46104538  0.63543225  0.42419926    -0.47200
C289        C  0.53690016  0.71274286  0.47956470     0.74300
O290        O  0.48386331  0.60134845  0.46381753    -0.59100
O291        O  0.52067878  0.71350306  0.46137009    -0.49200
O292        O  0.46405038  0.63724226  0.47321432    -0.55500
C293        C  0.56459167  0.64544301  0.43350990     0.84500
O294        O  0.50761110  0.68885606  0.41595040    -0.57400
O295        O  0.54278965  0.68594922  0.48047671    -0.60700
C296        C  0.32848156  0.65979431  0.31523657     0.85900
C297        C  0.36439229  0.66558667  0.32664884    -0.54400
C298        C  0.36407297  0.66490089  0.35022136     0.08800
C299        C  0.32695115  0.65917076  0.36057799     0.19800
C300        C  0.29590737  0.62343343  0.32616025    -0.55100
C301        C  0.29512987  0.62235632  0.34976340     0.08900
C302        C  0.32260312  0.69040572  0.32614398    -0.54600
C303        C  0.32241725  0.69085729  0.34985422     0.09500
H304        H  0.38891526  0.67011254  0.31639930     0.14000
H305        H  0.32631352  0.65862558  0.37971073    -0.00300
H306        H  0.27440970  0.60044910  0.31595985     0.14300
H307        H  0.31864592  0.71013607  0.31592999     0.14100
C308        C  0.32097745  0.65681215  0.21132677     0.85900
C309        C  0.31159039  0.68473998  0.20006253    -0.54400
C310        C  0.31084041  0.68424642  0.17646337     0.08800
C311        C  0.31611214  0.65298520  0.16604782     0.19800
C312        C  0.28886760  0.61900122  0.20183890    -0.55100
C313        C  0.28648577  0.61658229  0.17831324     0.08900
C314        C  0.35692345  0.66383920  0.19868166    -0.54600
C315        C  0.35468056  0.66110831  0.17502180     0.09500
H316        H  0.30455961  0.70262032  0.20956050     0.14000
H317        H  0.31294728  0.65044329  0.14704776    -0.00300
H318        H  0.26860563  0.59642016  0.21280717     0.14300
H319        H  0.38229616  0.67057970  0.20802074     0.14100
In320      In  0.33379871  0.85016821  0.44466497     1.36900
C321        C  0.38928920  0.85731068  0.47151015     0.77000
O322        O  0.36955151  0.90616928  0.42715601    -0.61500
O323        O  0.31513697  0.89200975  0.43741038    -0.52400
C324        C  0.32391192  0.80400985  0.40959707     0.69600
O325        O  0.35418179  0.82241163  0.42053577    -0.47200
C326        C  0.28206962  0.81875622  0.47810753     0.74300
O327        O  0.35878421  0.82687306  0.46880301    -0.59100
O328        O  0.28055687  0.80237524  0.45949340    -0.49200
O329        O  0.39197441  0.88414459  0.45985600    -0.55500
C330        C  0.34641414  0.91691674  0.42919244     0.84500
O331        O  0.29884135  0.81091447  0.41546863    -0.57400
O332        O  0.30831697  0.85264601  0.47872235    -0.60700
In333      In  0.52444783  0.85211091  0.57703231     1.36900
C334        C  0.48924134  0.86179972  0.54158151     0.77000
O335        O  0.54057357  0.90921400  0.58974040    -0.61500
O336        O  0.58340295  0.89597710  0.58868152    -0.52400
C337        C  0.48328979  0.81058768  0.61318166     0.69600
O338        O  0.47948196  0.83571729  0.60381627    -0.47200
C339        C  0.54088378  0.80939333  0.55155987     0.74300
O340        O  0.47233096  0.84182341  0.55889098    -0.59100
O341        O  0.56616899  0.84115321  0.55884128    -0.49200
O342        O  0.52448970  0.87839750  0.54264939    -0.55500
C343        C  0.57482260  0.92051983  0.59246449     0.84500
O344        O  0.51131888  0.80944965  0.60584026    -0.57400
O345        O  0.50828222  0.79885511  0.55872513    -0.60700
In346      In  0.14077171  0.46271459  0.44596539     1.36900
C347        C  0.13682075  0.50550248  0.47835070     0.77000
O348        O  0.08436118  0.44935458  0.43441292    -0.61500
O349        O  0.09590830  0.40530537  0.43275172    -0.52400
C350        C  0.18234901  0.50393797  0.40977423     0.69600
O351        O  0.16219586  0.51198753  0.42175584    -0.47200
C352        C  0.17197466  0.43661981  0.47518926     0.74300
O353        O  0.16546868  0.51578807  0.46601556    -0.59100
O354        O  0.13711552  0.41996832  0.47178491    -0.49200
O355        O  0.10957685  0.47337753  0.47378334    -0.55500
C356        C  0.07190417  0.41514484  0.43064731     0.84500
O357        O  0.17875363  0.47268635  0.41497417    -0.57400
O358        O  0.19093701  0.46410407  0.46192999    -0.60700
In359      In  0.14955047  0.65821310  0.57709063     1.36900
C360        C  0.14035267  0.60514876  0.54810995     0.77000
O361        O  0.10616833  0.66243530  0.59964021    -0.61500
O362        O  0.08861403  0.63122192  0.56879530    -0.52400
C363        C  0.18973965  0.65720602  0.61330514     0.69600
O364        O  0.15808709  0.62968036  0.60777977    -0.47200
C365        C  0.19143459  0.71867221  0.55093730     0.74300
O366        O  0.15026069  0.60599728  0.56877218    -0.59100
O367        O  0.16644946  0.71664349  0.56441140    -0.49200
O368        O  0.13415611  0.63067541  0.54263640    -0.55500
C369        C  0.07918868  0.64219274  0.58625777     0.84500
O370        O  0.19951461  0.68610227  0.60122195    -0.57400
O371        O  0.19639634  0.69139973  0.55214765    -0.60700
In372      In  0.13053481  0.64452145  0.94290725     1.36900
C373        C  0.17101139  0.69622833  0.97480948     0.77000
O374        O  0.09653315  0.60922978  0.97289929    -0.61500
O375        O  0.13536577  0.59728819  0.95756160    -0.52400
C376        C  0.06665826  0.63425335  0.92483755     0.69600
O377        O  0.09568712  0.66660485  0.92661687    -0.47200
C378        C  0.17331524  0.64723342  0.90754821     0.74300
O379        O  0.13991678  0.69097588  0.96777092    -0.59100
O380        O  0.14571358  0.61727003  0.91517827    -0.49200
O381        O  0.18240111  0.67781815  0.96396245    -0.55500
C382        C  0.11167506  0.58975669  0.97342703     0.84500
O383        O  0.07154019  0.60817173  0.93114067    -0.57400
O384        O  0.17719233  0.67650887  0.91676747    -0.60700
C385        C  0.33704530  0.66295280  0.71041777     0.85900
C386        C  0.33832916  0.62897973  0.70081590    -0.54400
C387        C  0.33652425  0.62581517  0.67730504     0.08800
C388        C  0.33321863  0.65716666  0.66534006     0.19800
C389        C  0.36838053  0.69745288  0.69750092    -0.55100
C390        C  0.36742351  0.69475542  0.67384135     0.08900
C391        C  0.29999110  0.65704508  0.70003565    -0.54600
C392        C  0.29826415  0.65523771  0.67643975     0.09500
H393        H  0.33943655  0.60849680  0.71165340     0.14000
H394        H  0.33125567  0.65348871  0.64636982    -0.00300
H395        H  0.38917664  0.72198935  0.70649777     0.14300
H396        H  0.27718154  0.65482224  0.71032732     0.14100
C397        C  0.33039921  0.66307426  0.81352787     0.85900
C398        C  0.29188797  0.65573099  0.82255021    -0.54400
C399        C  0.28837453  0.65439384  0.84618637     0.08800
C400        C  0.32353080  0.65913984  0.85862154     0.19800
C401        C  0.35974201  0.69860996  0.82621875    -0.55100
C402        C  0.35688427  0.69694602  0.84972620     0.08900
C403        C  0.33261605  0.63050847  0.82475800    -0.54600
C404        C  0.32961654  0.62830316  0.84830231     0.09500
H405        H  0.26927923  0.65156090  0.81127294     0.14000
H406        H  0.32059282  0.65761597  0.87769781    -0.00300
H407        H  0.38131177  0.72332617  0.81710479     0.14300
H408        H  0.33533011  0.60996533  0.81475799     0.14100
C409        C  0.36137640  0.65821908  0.77523854    -0.02500
C410        C  0.33663636  0.66716664  0.78679340     0.07200
C411        C  0.32475069  0.68768519  0.77336033    -0.02600
C412        C  0.32703985  0.68826144  0.74897053    -0.02600
C413        C  0.34053187  0.66768411  0.73720656     0.07400
C414        C  0.36299690  0.65808384  0.75069187    -0.02800
Br415      Br  0.40241429  0.65311173  0.73641753    -0.01300
Br416      Br  0.39984807  0.65503876  0.79214440    -0.01400
Br417      Br  0.31967015  0.72431476  0.73254786    -0.01300
Br418      Br  0.31316907  0.72215308  0.78770311    -0.01300
C419        C  0.21518517  0.67435556  0.87240459    -0.02500
C420        C  0.20002169  0.64743929  0.89025924     0.07200
C421        C  0.21130246  0.62084261  0.89206415    -0.02600
C422        C  0.23713513  0.62105691  0.87620573    -0.02600
C423        C  0.25446288  0.64937015  0.85917934     0.07400
C424        C  0.24215130  0.67534886  0.85698436    -0.02800
Br425      Br  0.26404300  0.71505209  0.83458652    -0.01300
Br426      Br  0.19946246  0.71047413  0.86915887    -0.01400
Br427      Br  0.24635368  0.58046882  0.87746599    -0.01300
Br428      Br  0.19463746  0.58594519  0.91773388    -0.01300
C429        C  0.24089348  0.62157368  0.65075668    -0.02500
C430        C  0.26686525  0.65417061  0.66280055     0.07200
C431        C  0.26414350  0.68656066  0.66055289    -0.02600
C432        C  0.23778423  0.68698403  0.64532555    -0.02600
C433        C  0.21421832  0.65531075  0.63160823     0.07400
C434        C  0.21573544  0.62234341  0.63471119    -0.02800
Br435      Br  0.18599760  0.57861898  0.61572276    -0.01300
Br436      Br  0.23798123  0.57492974  0.65709078    -0.01400
Br437      Br  0.23390569  0.73122299  0.64368705    -0.01300
Br438      Br  0.29851529  0.73187968  0.67675103    -0.01300
C439        C  0.10508313  0.53391087  0.49984148    -0.02500
C440        C  0.13606168  0.52904731  0.49698895     0.07200
C441        C  0.16733054  0.54769544  0.51175558    -0.02600
C442        C  0.16883755  0.57303443  0.52822722    -0.02600
C443        C  0.13790979  0.57772458  0.53124341     0.07400
C444        C  0.10582595  0.55786794  0.51722495    -0.02800
Br445      Br  0.06265795  0.56298620  0.52206420    -0.01300
Br446      Br  0.06234973  0.50939404  0.47944250    -0.01400
Br447      Br  0.21485936  0.60379533  0.54509369    -0.01300
Br448      Br  0.20744544  0.53707769  0.51056254    -0.01300
C449        C  0.46443103  0.77123570  0.64979624    -0.02500
C450        C  0.45449469  0.78230414  0.62935995     0.07200
C451        C  0.41626853  0.76425840  0.62315924    -0.02600
C452        C  0.38810271  0.73635353  0.63745357    -0.02600
C453        C  0.39749866  0.72510275  0.65834677     0.07400
C454        C  0.43644515  0.74240629  0.66391928    -0.02800
Br455      Br  0.45317083  0.72406519  0.68906335    -0.01300
Br456      Br  0.51664128  0.79612855  0.65863579    -0.01400
Br457      Br  0.33715816  0.71458698  0.62694866    -0.01300
Br458      Br  0.40216033  0.77560288  0.59370295    -0.01300
C459        C  0.21870530  0.77111400  0.49410973    -0.02500
C460        C  0.25682136  0.79851042  0.49801258     0.07200
C461        C  0.27173845  0.80257256  0.52054105    -0.02600
C462        C  0.24968323  0.77733454  0.53824911    -0.02600
C463        C  0.21227638  0.74910458  0.53395056     0.07400
C464        C  0.19654470  0.74663228  0.51203876    -0.02800
Br465      Br  0.14515134  0.70785351  0.50619605    -0.01300
Br466      Br  0.19651956  0.76704551  0.46418817    -0.01400
Br467      Br  0.27115269  0.77961091  0.56815681    -0.01300
Br468      Br  0.32311499  0.84064854  0.52718104    -0.01300
C469        C  0.43726736  0.89238154  0.50240562    -0.02500
C470        C  0.41872077  0.86102802  0.48755139     0.07200
C471        C  0.42692731  0.83209902  0.48905212    -0.02600
C472        C  0.45205613  0.83375470  0.50589352    -0.02600
C473        C  0.46880703  0.86395547  0.52145982     0.07400
C474        C  0.46277551  0.89404148  0.51903862    -0.02800
Br475      Br  0.48910697  0.93715331  0.53887120    -0.01300
Br476      Br  0.42513926  0.93134811  0.50190236    -0.01400
Br477      Br  0.46425073  0.79492609  0.50742969    -0.01300
Br478      Br  0.40406503  0.78998708  0.46809248    -0.01300
C479        C  0.19950022  0.54874561  0.37600758    -0.02500
C480        C  0.20999634  0.53075316  0.39245011     0.07200
C481        C  0.24814016  0.54151854  0.39396933    -0.02600
C482        C  0.27559465  0.57110653  0.38016925    -0.02600
C483        C  0.26538382  0.58926246  0.36356830     0.07400
C484        C  0.22659235  0.57633151  0.36087568    -0.02800
Br485      Br  0.20992626  0.59739175  0.33735238    -0.01300
Br486      Br  0.14786394  0.53614118  0.37444740    -0.01400
Br487      Br  0.32709464  0.58538448  0.38417961    -0.01300
Br488      Br  0.26361644  0.51752197  0.41626256    -0.01300
C489        C  0.29245946  0.70986487  0.38150070    -0.02500
C490        C  0.31970757  0.72018629  0.36375198     0.07200
C491        C  0.34587984  0.75903672  0.36022669    -0.02600
C492        C  0.34465837  0.78641910  0.37387461    -0.02600
C493        C  0.31873297  0.77575319  0.39207791     0.07400
C494        C  0.29223478  0.73742786  0.39565727    -0.02800
Br495      Br  0.25753183  0.72244744  0.42131526    -0.01300
Br496      Br  0.25546056  0.65819228  0.38736052    -0.01400
Br497      Br  0.37939815  0.83921493  0.36812759    -0.01300
Br498      Br  0.38796388  0.77591697  0.33973901    -0.01300
C499        C  0.34172659  0.69274258  0.25105659    -0.02500
C500        C  0.32571293  0.65841942  0.23832866     0.07200
C501        C  0.32115312  0.62673894  0.25102634    -0.02600
C502        C  0.32263149  0.62705128  0.27558553    -0.02600
C503        C  0.33055372  0.65954758  0.28825253     0.07400
C504        C  0.34671772  0.69314143  0.27526008    -0.02800
Br505      Br  0.38600909  0.73894351  0.28878421    -0.01300
Br506      Br  0.36189624  0.74145531  0.23681013    -0.01400
Br507      Br  0.32058250  0.58473676  0.29107274    -0.01300
Br508      Br  0.31805631  0.58388239  0.23564005    -0.01300
C509        C  0.53364579  0.72517271  0.52170491    -0.02500
C510        C  0.54510376  0.73918614  0.49898287     0.07200
C511        C  0.55978879  0.77769343  0.49458737    -0.02600
C512        C  0.56064385  0.80136924  0.51227495    -0.02600
C513        C  0.54755588  0.78690408  0.53462058     0.07400
C514        C  0.53490947  0.74901977  0.53939999    -0.02800
Br515      Br  0.51759964  0.72944850  0.57013478    -0.01300
Br516      Br  0.51223216  0.67248227  0.52846563    -0.01400
Br517      Br  0.57542111  0.85252465  0.50508340    -0.01300
Br518      Br  0.57835314  0.79813331  0.46421269    -0.01300
C519        C  0.43774552  0.64405889  0.37425503    -0.02500
C520        C  0.45118095  0.66792265  0.39350105     0.07200
C521        C  0.43868011  0.69297990  0.39753789    -0.02600
C522        C  0.41103964  0.69266051  0.38329911    -0.02600
C523        C  0.39589044  0.66758969  0.36437102     0.07400
C524        C  0.41036269  0.64379043  0.35969762    -0.02800
Br525      Br  0.39020830  0.60713652  0.33522504    -0.01300
Br526      Br  0.45737893  0.61185871  0.36791313    -0.01400
Br527      Br  0.39502755  0.72736324  0.39040525    -0.01300
Br528      Br  0.45863254  0.72693203  0.42347608    -0.01300
C529        C  0.24006199  0.53741029  0.13423117    -0.02500
C530        C  0.20270761  0.52930552  0.13461305     0.07200
C531        C  0.19175199  0.54594112  0.15174178    -0.02600
C532        C  0.21818936  0.57100662  0.16796001    -0.02600
C533        C  0.25672150  0.58305511  0.16545957     0.07400
C534        C  0.26703502  0.56480188  0.14908136    -0.02800
Br535      Br  0.31785306  0.57570974  0.14722918    -0.01300
Br536      Br  0.25527264  0.51274352  0.11233685    -0.01400
Br537      Br  0.20105486  0.58868469  0.19328007    -0.01300
Br538      Br  0.14057222  0.53474530  0.15292928    -0.01300
C539        C  0.10610395  0.50723150  0.00489436    -0.02500
C540        C  0.10673048  0.51809071  0.02801614     0.07200
C541        C  0.10217168  0.54857348  0.03309533    -0.02600
C542        C  0.10050033  0.57036219  0.01511798    -0.02600
C543        C  0.10434208  0.56215811  0.99190289     0.07400
C544        C  0.10515014  0.52937128  0.98686013    -0.02800
Br545      Br  0.10477116  0.51432762  0.95526876    -0.01300
Br546      Br  0.10980294  0.46389472  0.99767238    -0.01400
Br547      Br  0.09573043  0.61287227  0.02301752    -0.01300
Br548      Br  0.09852952  0.56072758  0.06484549    -0.01300
C549        C  0.19751038  0.42622840  0.53638081    -0.02500
C550        C  0.23197875  0.42817497  0.53277508     0.07200
C551        C  0.24383741  0.42735304  0.50997563    -0.02600
C552        C  0.22211848  0.42632586  0.49100582    -0.02600
C553        C  0.18926257  0.42762268  0.49461023     0.07400
C554        C  0.17643072  0.42644074  0.51742215    -0.02800
Br555      Br  0.13245985  0.42980959  0.52309483    -0.01300
Br556      Br  0.17993156  0.42476089  0.56746875    -0.01400
Br557      Br  0.23775931  0.42393834  0.45996147    -0.01300
Br558      Br  0.29219584  0.43266212  0.50436069    -0.01300
C559        C  0.35582854  0.57483252  0.62967818    -0.02500
C560        C  0.32815536  0.53679824  0.63379413     0.07200
C561        C  0.30572756  0.52753210  0.65391064    -0.02600
C562        C  0.30939044  0.55606591  0.66896188    -0.02600
C563        C  0.33605739  0.59435890  0.66416792     0.07400
C564        C  0.36082412  0.60288218  0.64531534    -0.02800
Br565      Br  0.40429837  0.65240226  0.64171624    -0.01300
Br566      Br  0.38525507  0.59011489  0.60145936    -0.01400
Br567      Br  0.27702468  0.54170333  0.69580354    -0.01300
Br568      Br  0.27045909  0.47560350  0.66126222    -0.01300
C569        C  0.44661018  0.55857367  0.50733437    -0.02500
C570        C  0.43487828  0.57776001  0.49269700     0.07200
C571        C  0.39826645  0.57154846  0.49501982    -0.02600
C572        C  0.37444430  0.54827079  0.51277072    -0.02600
C573        C  0.38660649  0.52995856  0.52778675     0.07400
C574        C  0.42233112  0.53437550  0.52463509     0.03600
Br575      Br  0.43941216  0.50947840  0.54506745    -0.01300
Br576      Br  0.49687675  0.56717315  0.50510654    -0.01400
Br577      Br  0.32465151  0.54074141  0.51588763    -0.01300
Br578      Br  0.37970406  0.59321219  0.47311847    -0.01300
C579        C  0.42305926  0.68453883  0.12355330    -0.02500
C580        C  0.44169638  0.66572214  0.12973653     0.07200
C581        C  0.43310755  0.64642862  0.15086668    -0.02600
C582        C  0.40499415  0.64475991  0.16553724    -0.02600
C583        C  0.38591227  0.66398852  0.15966849     0.07400
C584        C  0.39573205  0.68408347  0.13832961    -0.02800
Br585      Br  0.37281829  0.71152110  0.12797014    -0.01300
Br586      Br  0.43321709  0.70879410  0.09361820    -0.01400
Br587      Br  0.38992610  0.61117421  0.19169510    -0.01300
Br588      Br  0.46015546  0.62193151  0.15941926    -0.01300
C589        C  0.19141254  0.42097462  0.01894696    -0.02500
C590        C  0.20514421  0.45335920  0.03300508     0.07200
C591        C  0.24166110  0.48424191  0.02856459    -0.02600
C592        C  0.26212742  0.48462623  0.00907975    -0.02600
C593        C  0.24687606  0.45384357  0.99382133     0.07400
C594        C  0.21209445  0.42143695  0.99929187    -0.02800
Br595      Br  0.19178622  0.37851429  0.97908780    -0.01300
Br596      Br  0.14435988  0.37589292  0.02608108    -0.01400
Br597      Br  0.31228136  0.52728656  0.00407073    -0.01300
Br598      Br  0.26549616  0.52569100  0.04992146    -0.01300
C599        C  0.43860511  0.55481880  0.98755000    -0.02500
C600        C  0.40375397  0.52262520  0.99308614     0.07200
C601        C  0.39474453  0.51147603  0.01640846    -0.02600
C602        C  0.41793266  0.53530377  0.03406300    -0.02600
C603        C  0.45028225  0.57001815  0.02848864     0.07400
C604        C  0.46204704  0.57840040  0.00519279    -0.02800
Br605      Br  0.50909046  0.62291988  0.99683594    -0.01300
Br606      Br  0.45471388  0.56629514  0.95570821    -0.01400
Br607      Br  0.40569816  0.51991434  0.06595202    -0.01300
Br608      Br  0.34975838  0.46483579  0.02464847    -0.01300
C609        C  0.35022809  0.57937832  0.89743290    -0.02500
C610        C  0.32788107  0.54105170  0.89152728     0.07200
C611        C  0.30739673  0.53127226  0.87075139    -0.02600
C612        C  0.30789000  0.55928039  0.85652550    -0.02600
C613        C  0.33045443  0.59800628  0.86240954     0.07400
C614        C  0.35253265  0.60746230  0.88267403    -0.02800
Br615      Br  0.38820252  0.65883065  0.89035869    -0.01300
Br616      Br  0.37587013  0.59412092  0.92688944    -0.01400
Br617      Br  0.27408534  0.54305283  0.83046751    -0.01300
Br618      Br  0.27917540  0.47930935  0.86148337    -0.01300
C619        C  0.20587564  0.70541855  0.01171060    -0.02500
C620        C  0.19169831  0.71977708  0.99507408     0.07200
C621        C  0.19810648  0.75631237  0.99788217    -0.02600
C622        C  0.21971614  0.77879399  0.01665537    -0.02600
C623        C  0.23510458  0.76487703  0.03279067     0.07400
C624        C  0.22749348  0.72779783  0.03031984    -0.02800
Br625      Br  0.24650541  0.70685132  0.05240744    -0.01300
Br626      Br  0.19544116  0.65449099  0.00952831    -0.01400
Br627      Br  0.23095284  0.82985076  0.01882096    -0.01300
Br628      Br  0.18015556  0.77689854  0.97493522    -0.01300
C629        C  0.27825675  0.73235850  0.13390605    -0.02500
C630        C  0.30964317  0.76928774  0.13332865     0.07200
C631        C  0.34003268  0.77884326  0.14825699    -0.02600
C632        C  0.34002140  0.75136602  0.16258577    -0.02600
C633        C  0.30918443  0.71390783  0.16256512     0.07400
C634        C  0.27795987  0.70501474  0.14853863    -0.02800
Br635      Br  0.23446860  0.65540967  0.14907581    -0.01300
Br636      Br  0.23657760  0.71803338  0.11333856    -0.01400
Br637      Br  0.38475859  0.76460971  0.17987794    -0.01300
Br638      Br  0.38203188  0.82990079  0.14906504    -0.01300
C639        C  0.55216434  0.79370799  0.00835922    -0.02500
C640        C  0.52678324  0.78087654  0.98976162     0.07200
C641        C  0.49865523  0.74260812  0.98837898    -0.02600
C642        C  0.49387199  0.71800457  0.00656271    -0.02600
C643        C  0.51894938  0.73099113  0.02549611     0.07400
C644        C  0.54913722  0.76860399  0.02573814    -0.02800
Br645      Br  0.58533705  0.78684692  0.05047970    -0.01300
Br646      Br  0.59078220  0.84610230  0.01022144    -0.01400
Br647      Br  0.45253621  0.66658462  0.00520494    -0.01300
Br648      Br  0.46488142  0.72419025  0.96229963    -0.01300
C649        C  0.46120633  0.88332962  0.01792195    -0.02500
C650        C  0.45080350  0.87827955  0.99440986     0.07200
C651        C  0.41649423  0.87461136  0.98777700    -0.02600
C652        C  0.38980274  0.86915995  0.00460020    -0.02600
C653        C  0.39856672  0.86970530  0.02815509     0.07400
C654        C  0.43505757  0.87932799  0.03476760    -0.02800
Br655      Br  0.44922999  0.88703461  0.06699906    -0.01300
Br656      Br  0.50998279  0.89343969  0.02764688    -0.01400
Br657      Br  0.34042413  0.85744142  0.99497166    -0.01300
Br658      Br  0.40656207  0.87800789  0.95559117    -0.01300
C659        C  0.39818408  0.77044072  0.89799414    -0.02500
C660        C  0.43659571  0.78205731  0.89702347     0.07200
C661        C  0.44943710  0.76834924  0.87919095    -0.02600
C662        C  0.42385797  0.74205562  0.86313571    -0.02600
C663        C  0.38472001  0.72814739  0.86511713     0.07400
C664        C  0.37243179  0.74328293  0.88249850    -0.02800
Br665      Br  0.32063791  0.72881459  0.88504494    -0.01300
Br666      Br  0.38082079  0.79368200  0.91959386    -0.01400
Br667      Br  0.44313345  0.72321642  0.83980250    -0.01300
Br668      Br  0.50190202  0.78357031  0.87747214    -0.01300
C669        C  0.96939295  0.34300260  0.44073238    -0.02500
C670        C  0.95248072  0.35489407  0.42440700     0.07200
C671        C  0.97509196  0.38206608  0.40774563    -0.02600
C672        C  0.01443408  0.39883546  0.40825096    -0.02600
C673        C  0.03155838  0.38925412  0.42569827     0.07400
C674        C  0.00886335  0.36021624  0.44142126    -0.02800
Br675      Br  0.03174003  0.34729900  0.46583564    -0.01300
Br676      Br  0.93902137  0.30703826  0.46434817    -0.01400
Br677      Br  0.04538522  0.43626394  0.38556070    -0.01300
Br678      Br  0.95229774  0.39773209  0.38489429    -0.01300
C679        C  0.98000270  0.59071856  0.61074843    -0.02500
C680        C  0.95941828  0.59220589  0.59177742     0.07200
C681        C  0.97931509  0.61465359  0.57240508    -0.02600
C682        C  0.01892752  0.63425998  0.57186420    -0.02600
C683        C  0.03923980  0.63065768  0.59013232     0.07400
C684        C  0.01969687  0.60982958  0.60990747    -0.02800
Br685      Br  0.04700700  0.60443224  0.63497318    -0.01300
Br686      Br  0.95393136  0.56113519  0.63764687    -0.01400
Br687      Br  0.04567321  0.66555430  0.54558056    -0.01300
Br688      Br  0.95303934  0.61477955  0.54490948    -0.01300
C689        C  0.85566511  0.39240935  0.51837604    -0.02500
C690        C  0.86227024  0.40506279  0.49530995     0.07200
C691        C  0.87239791  0.44211808  0.49002926    -0.02600
C692        C  0.87337102  0.46582592  0.50758657    -0.02600
C693        C  0.86576471  0.45287202  0.53064783     0.07400
C694        C  0.85863253  0.41673645  0.53611294    -0.02800
Br695      Br  0.85368613  0.40069934  0.56791346    -0.01300
Br696      Br  0.83898002  0.34076841  0.52556593    -0.01400
Br697      Br  0.88176890  0.51460100  0.49939362    -0.01300
Br698      Br  0.88504536  0.46039178  0.45867799    -0.01300
C699        C  0.71923131  0.37792780  0.63272789    -0.02500
C700        C  0.70895121  0.38620972  0.65463363     0.07200
C701        C  0.72567203  0.42511917  0.66034799    -0.02600
C702        C  0.75521825  0.45351346  0.64684259    -0.02600
C703        C  0.76740076  0.44429098  0.62666571     0.07400
C704        C  0.74776997  0.40686104  0.61903316    -0.02800
Br705      Br  0.75822043  0.39574185  0.58833482    -0.01300
Br706      Br  0.69599878  0.32843370  0.61930546    -0.01400
Br707      Br  0.77938822  0.50548154  0.65600751    -0.01300
Br708      Br  0.70618521  0.44180594  0.68488530    -0.01300
C709        C  0.64401137  0.35385339  0.74890645    -0.02500
C710        C  0.65948352  0.33542323  0.73652429     0.07200
C711        C  0.68542703  0.32963971  0.74919609    -0.02600
C712        C  0.68644679  0.33147579  0.77371324    -0.02600
C713        C  0.66063035  0.33764995  0.78625010     0.07400
C714        C  0.64412354  0.35448663  0.77344461    -0.02800
Br715      Br  0.63061077  0.38703087  0.78855313    -0.01300
Br716      Br  0.63148078  0.38668404  0.73312347    -0.01400
Br717      Br  0.72753246  0.33169669  0.78954692    -0.01300
Br718      Br  0.72378433  0.32463893  0.73349460    -0.01300
C719        C  0.61758613  0.97878651  0.94553955    -0.02500
C720        C  0.59101473  0.95701138  0.92845751     0.07200
C721        C  0.58632607  0.97504299  0.90931381    -0.02600
C722        C  0.60325799  0.01435030  0.90900068    -0.02600
C723        C  0.62779026  0.03622734  0.92694075     0.07400
C724        C  0.63645331  0.01831384  0.94455247    -0.02800
Br725      Br  0.67044896  0.04721956  0.96918411    -0.01300
Br726      Br  0.62532454  0.95484840  0.97177025    -0.01400
Br727      Br  0.59119525  0.03768515  0.88442672    -0.01300
Br728      Br  0.55687749  0.94546516  0.88339287    -0.01300
C729        C  0.62945397  0.19452388  0.86772695    -0.02500
C730        C  0.66214334  0.20508006  0.88083492     0.07200
C731        C  0.69503966  0.24006313  0.87605290    -0.02600
C732        C  0.69296354  0.26621130  0.86158081    -0.02600
C733        C  0.65793855  0.25841834  0.85311637     0.07400
C734        C  0.62782266  0.22100582  0.85336315    -0.02800
Br735      Br  0.58546706  0.20583815  0.83318671    -0.01300
Br736      Br  0.58712987  0.14375354  0.86895507    -0.01400
Br737      Br  0.73822643  0.31145791  0.85192706    -0.01300
Br738      Br  0.74254271  0.25389911  0.89006071    -0.01300
C739        C  0.96721188  0.38376048  0.11342796    -0.02500
C740        C  0.94645734  0.36083662  0.09470850     0.07200
C741        C  0.96480310  0.35120572  0.07797567    -0.02600
C742        C  0.00423857  0.36807346  0.07842054    -0.02600
C743        C  0.02543334  0.39346440  0.09622923     0.07400
C744        C  0.00645052  0.39954656  0.11438202    -0.02800
Br745      Br  0.03441522  0.43078717  0.14018439    -0.01300
Br746      Br  0.94186126  0.39459291  0.13737512    -0.01400
Br747      Br  0.02910572  0.36062674  0.05250170    -0.01300
Br748      Br  0.93668824  0.31853867  0.05267747    -0.01300
C749        C  0.76905074  0.28195164  0.00426087    -0.02500
C750        C  0.78260826  0.26870321  0.02203148     0.07200
C751        C  0.77723213  0.23237244  0.02010709    -0.02600
C752        C  0.75714049  0.20903497  0.00121609    -0.02600
C753        C  0.74165730  0.22159288  0.98423830     0.07400
C754        C  0.74943472  0.25884838  0.98535062    -0.02800
Br755      Br  0.73505157  0.27938383  0.96015985    -0.01300
Br756      Br  0.77754742  0.33222938  0.00520331    -0.01400
Br757      Br  0.74981840  0.15938132  0.99939961    -0.01300
Br758      Br  0.79428665  0.21298317  0.04439701    -0.01300
C759        C  0.97405266  0.63179000  0.92619929    -0.02500
C760        C  0.94989670  0.59592465  0.91643510     0.07200
C761        C  0.96632786  0.57893994  0.90373522    -0.02600
C762        C  0.00533502  0.59344663  0.90477772    -0.02600
C763        C  0.02879894  0.62622874  0.91755440     0.07400
C764        C  0.01344224  0.64703925  0.92651674    -0.02800
Br765      Br  0.04566995  0.69486791  0.94112989    -0.01300
Br766      Br  0.95388968  0.65943840  0.94063903    -0.01400
Br767      Br  0.02649457  0.56761272  0.88901784    -0.01300
Br768      Br  0.93555777  0.53553643  0.88472532    -0.01300
C769        C  0.87418596  0.48582534  0.01342139    -0.02500
C770        C  0.87338596  0.47605710  0.99003370     0.07200
C771        C  0.87868289  0.44626322  0.98415196    -0.02600
C772        C  0.87971385  0.42325347  0.00161248    -0.02600
C773        C  0.87583999  0.43046045  0.02497021     0.07400
C774        C  0.87584907  0.46327887  0.03082625    -0.02800
Br775      Br  0.87837876  0.47755660  0.06280038    -0.01300
Br776      Br  0.86972577  0.52805469  0.02210136    -0.01400
Br777      Br  0.88367338  0.38056240  0.99318307    -0.01300
Br778      Br  0.88513845  0.43746769  0.95222078    -0.01300
C779        C  0.74691844  0.40757380  0.90409778    -0.02500
C780        C  0.76111863  0.44568755  0.89853390     0.07200
C781        C  0.74723067  0.45421406  0.87876101    -0.02600
C782        C  0.72032501  0.42530869  0.86442189    -0.02600
C783        C  0.70805022  0.38687185  0.86866526     0.07400
C784        C  0.72048836  0.37846182  0.88961466    -0.02800
Br785      Br  0.70236481  0.32802160  0.90045615    -0.01300
Br786      Br  0.76488929  0.39455454  0.93140749    -0.01400
Br787      Br  0.69717720  0.43961024  0.84089935    -0.01300
Br788      Br  0.76316472  0.50585867  0.87193547    -0.01300
C789        C  0.62448838  0.64734371  0.44322043    -0.02500
C790        C  0.59325165  0.63527668  0.42848778     0.07200
C791        C  0.58537907  0.60744421  0.41184465    -0.02600
C792        C  0.60532176  0.58856845  0.41191628    -0.02600
C793        C  0.63226853  0.59636865  0.42911061     0.07400
C794        C  0.64351444  0.62739207  0.44385429    -0.02800
Br795      Br  0.68149222  0.63967867  0.46699372    -0.01300
Br796      Br  0.63878588  0.68829724  0.46442023    -0.01400
Br797      Br  0.59504792  0.55106549  0.38884955    -0.01300
Br798      Br  0.54601217  0.59388395  0.38950886    -0.01300
C799        C  0.79796065  0.56438285  0.51651524    -0.02500
C800        C  0.78388213  0.53960290  0.53548624     0.07200
C801        C  0.74494799  0.51548788  0.53823328    -0.02600
C802        C  0.72011865  0.51486260  0.52162879    -0.02600
C803        C  0.73410921  0.53696341  0.50137969     0.07400
C804        C  0.77315237  0.56290473  0.49930327    -0.02800
Br805      Br  0.79322767  0.59402300  0.47215214    -0.01300
Br806      Br  0.85138583  0.59834612  0.51349459    -0.01400
Br807      Br  0.66677943  0.48362429  0.52714644    -0.01300
Br808      Br  0.72573077  0.48136416  0.56423470    -0.01300
C809        C  0.74234394  0.36367612  0.38116482    -0.02500
C810        C  0.72992485  0.34196464  0.36072184     0.07200
C811        C  0.74565722  0.31949751  0.35531893    -0.02600
C812        C  0.77222163  0.31855840  0.37029510    -0.02600
C813        C  0.78152101  0.33770271  0.39163670     0.07400
C814        C  0.76574463  0.35978192  0.39702810    -0.02800
Br815      Br  0.77319108  0.38286375  0.42713967    -0.01300
Br816      Br  0.73098132  0.40211184  0.38725089    -0.01400
Br817      Br  0.79680939  0.29192565  0.36112932    -0.01300
Br818      Br  0.72892758  0.28687804  0.32873248    -0.01300
C819        C  0.68144511  0.43671709  0.36192306    -0.02500
C820        C  0.65740499  0.39723555  0.36528011     0.07200
C821        C  0.63403025  0.38489268  0.38515101    -0.02600
C822        C  0.63611274  0.41064318  0.40171099    -0.02600
C823        C  0.65856029  0.44957933  0.39781998     0.07400
C824        C  0.68117920  0.46252781  0.37780686    -0.02800
Br825      Br  0.71195718  0.51581799  0.37220678    -0.01300
Br826      Br  0.71798518  0.45659930  0.33716363    -0.01400
Br827      Br  0.61084481  0.39202978  0.43111650    -0.01300
Br828      Br  0.59673887  0.33296837  0.38995190    -0.01300
C829        C  0.74055738  0.32497422  0.16279948    -0.02500
C830        C  0.72552743  0.34842118  0.15878250     0.07200
C831        C  0.73890802  0.37262647  0.13931952    -0.02600
C832        C  0.76433387  0.37170085  0.12352404    -0.02600
C833        C  0.77808512  0.34736350  0.12711344     0.07400
C834        C  0.76634595  0.32433498  0.14696870    -0.02800
Br835      Br  0.78589155  0.29190849  0.15262013    -0.01300
Br836      Br  0.72372837  0.29068532  0.18871004    -0.01400
Br837      Br  0.77801387  0.40236768  0.09586274    -0.01300
Br838      Br  0.72481154  0.40932205  0.13428112    -0.01300
C839        C  0.62875691  0.33567823  0.27384446    -0.02500
C840        C  0.66262630  0.34658424  0.28582142     0.07200
C841        C  0.69588901  0.36989456  0.27277477    -0.02600
C842        C  0.69485653  0.37055770  0.24814397    -0.02600
C843        C  0.66069759  0.34721274  0.23598630     0.07400
C844        C  0.62762391  0.33521559  0.24932504    -0.02800
Br845      Br  0.58235497  0.32677032  0.23475254    -0.01300
Br846      Br  0.58649709  0.33165665  0.29036785    -0.01400
Br847      Br  0.73745391  0.41150836  0.23229345    -0.01300
Br848      Br  0.74044322  0.40878832  0.28805830    -0.01300
C849        C  0.63517350  0.62698783  0.08111072    -0.02500
C850        C  0.62564801  0.59722176  0.09664190     0.07200
C851        C  0.59871421  0.58904941  0.11405919    -0.02600
C852        C  0.57946756  0.60863723  0.11488917    -0.02600
C853        C  0.58553919  0.63505803  0.09758136     0.07400
C854        C  0.61485679  0.64559077  0.08134896    -0.02800
Br855      Br  0.62398157  0.68148589  0.05723092    -0.01300
Br856      Br  0.67214496  0.63851192  0.05718595    -0.01400
Br857      Br  0.54360312  0.59832996  0.13927118    -0.01300
Br858      Br  0.58631467  0.54916701  0.13582949    -0.01300
C859        C  0.77447793  0.57505756  0.02593283    -0.02500
C860        C  0.73579489  0.55932274  0.02188990     0.07200
C861        C  0.72218192  0.54952792  0.99901296    -0.02600
C862        C  0.74608762  0.55092572  0.98107527    -0.02600
C863        C  0.78414043  0.56329805  0.98567989     0.07400
C864        C  0.79862306  0.57795710  0.00779936    -0.02800
Br865      Br  0.85198776  0.60321443  0.01313518    -0.01300
Br866      Br  0.79450022  0.59281870  0.05638396    -0.01400
Br867      Br  0.72538307  0.53255931  0.95082234    -0.01300
Br868      Br  0.66992204  0.53089898  0.99231347    -0.01300
C869        C  0.62295310  0.38648253  0.13984892    -0.02500
C870        C  0.64855916  0.39863443  0.15844458     0.07200
C871        C  0.67333277  0.43790322  0.16149456    -0.02600
C872        C  0.67323877  0.46391283  0.14574599    -0.02600
C873        C  0.64956481  0.45132557  0.12623587     0.07400
C874        C  0.62406587  0.41234044  0.12360074    -0.02800
Br875      Br  0.59164967  0.39315570  0.09687874    -0.01300
Br876      Br  0.58447525  0.33443605  0.13678515    -0.01400
Br877      Br  0.70485388  0.51705813  0.15149996    -0.01300
Br878      Br  0.71056872  0.45704659  0.18569919    -0.01300
C879        C  0.37003607  0.01037739  0.07710008    -0.02500
C880        C  0.39669707  0.02992673  0.09459294     0.07200
C881        C  0.40138463  0.00938030  0.11225757    -0.02600
C882        C  0.38135089  0.96973498  0.11174308    -0.02600
C883        C  0.35632835  0.95000322  0.09345342     0.07400
C884        C  0.35016479  0.97070510  0.07640198    -0.02800
Br885      Br  0.31785792  0.94552491  0.05038349    -0.01300
Br886      Br  0.36352695  0.03802750  0.05256535    -0.01400
Br887      Br  0.38846676  0.94263755  0.13629085    -0.01300
Br888      Br  0.43554589  0.03587979  0.13725535    -0.01300
C889        C  0.52164607  0.11926421  0.00492807    -0.02500
C890        C  0.53340681  0.12134521  0.02798985     0.07200
C891        C  0.56605711  0.12028312  0.03276203    -0.02600
C892        C  0.58910401  0.12140516  0.01455782    -0.02600
C893        C  0.57862218  0.12195722  0.99141111     0.07400
C894        C  0.54393490  0.11906805  0.98670947    -0.02800
Br895      Br  0.52636300  0.11433694  0.95531627    -0.01300
Br896      Br  0.47628248  0.11922618  0.99787027    -0.01400
Br897      Br  0.63649431  0.12554718  0.02181019    -0.01300
Br898      Br  0.57850589  0.11584292  0.06423674    -0.01300
C899        C  0.58035463  0.22393914  0.12981537    -0.02500
C900        C  0.54165264  0.21056064  0.13245425     0.07200
C901        C  0.53002509  0.22445244  0.15081346    -0.02600
C902        C  0.55684296  0.25255460  0.16569127    -0.02600
C903        C  0.59603265  0.26770593  0.16235736     0.07400
C904        C  0.60702205  0.25173739  0.14470512    -0.02800
Br905      Br  0.65838204  0.26536355  0.14116095    -0.01300
Br906      Br  0.59790419  0.20596417  0.10475111    -0.01400
Br907      Br  0.53863728  0.27100231  0.18958853    -0.01300
Br908      Br  0.47701949  0.20414082  0.15601644    -0.01300
C909        C  0.34675938  0.97605945  0.43990728    -0.02500
C910        C  0.35727271  0.95666996  0.42442799     0.07200
C911        C  0.38386015  0.97741526  0.40691221    -0.02600
C912        C  0.40355071  0.01698033  0.40703244    -0.02600
C913        C  0.39703492  0.03630118  0.42464750     0.07400
C914        C  0.36693629  0.01575549  0.44020877    -0.02800
Br915      Br  0.35631818  0.04153496  0.46399218    -0.01300
Br916      Br  0.30730761  0.94901975  0.46238504    -0.01400
Br917      Br  0.44075846  0.04508706  0.38349770    -0.01300
Br918      Br  0.39385654  0.95183164  0.38274753    -0.01300
C919        C  0.56109500  0.25550467  0.35902334    -0.02500
C920        C  0.59963615  0.26650359  0.35957906     0.07200
C921        C  0.61043801  0.24791270  0.37540624    -0.02600
C922        C  0.58458461  0.22158364  0.39142871    -0.02600
C923        C  0.54659661  0.21193709  0.39151272     0.07400
C924        C  0.53496085  0.22881367  0.37499370    -0.02800
Br925      Br  0.48310948  0.21577086  0.37427581    -0.01300
Br926      Br  0.54371313  0.27880772  0.33789906    -0.01400
Br927      Br  0.60296928  0.20156203  0.41470589    -0.01300
Br928      Br  0.66039524  0.25648775  0.37488448    -0.01300
C929        C  0.59674420  0.97723303  0.61730454    -0.02500
C930        C  0.60235830  0.96030830  0.59787336     0.07200
C931        C  0.62987099  0.98298120  0.58135367    -0.02600
C932        C  0.64880642  0.02239943  0.58306039    -0.02600
C933        C  0.63982348  0.03928726  0.60108313     0.07400
C934        C  0.61540500  0.01666042  0.61889495    -0.02800
Br935      Br  0.60697827  0.03990702  0.64511638    -0.01300
Br936      Br  0.56241615  0.94614503  0.64128636    -0.01400
Br937      Br  0.68344161  0.05299416  0.55894495    -0.01300
Br938      Br  0.63806317  0.96035084  0.55465298    -0.01300
C939        C  0.76809839  0.20638854  0.52435734    -0.02500
C940        C  0.73586430  0.20757614  0.53070953     0.07200
C941        C  0.72527456  0.22885372  0.51709706    -0.02600
C942        C  0.74779991  0.25044137  0.49838423    -0.02600
C943        C  0.77992918  0.24914311  0.49190068     0.07400
C944        C  0.78983423  0.22682428  0.50494917    -0.02800
Br945      Br  0.83261140  0.22323200  0.49597834    -0.01300
Br946      Br  0.78346989  0.17776389  0.54256130    -0.01400
Br947      Br  0.73569967  0.28421709  0.48302300    -0.01300
Br948      Br  0.67826394  0.22672777  0.52266417    -0.01300
C949        C  0.69335452  0.24161565  0.64260153    -0.02500
C950        C  0.66121029  0.20582740  0.63850739     0.07200
C951        C  0.62866085  0.19430300  0.65216702    -0.02600
C952        C  0.62680440  0.21989539  0.66729154    -0.02600
C953        C  0.65631987  0.25761894  0.66770063     0.07400
C954        C  0.69103467  0.26686782  0.65776757    -0.02800
Br955      Br  0.73603293  0.31268921  0.66674862    -0.01300
Br956      Br  0.74015288  0.25782092  0.62663825    -0.01400
Br957      Br  0.58547436  0.20274676  0.68878126    -0.01300
Br958      Br  0.58689092  0.14323490  0.65088579    -0.01300
C959        C  0.52127284  0.11161669  0.51901585    -0.02500
C960        C  0.53286808  0.11344132  0.49581327     0.07200
C961        C  0.56543060  0.11214794  0.49092490    -0.02600
C962        C  0.58891124  0.11412089  0.50897893    -0.02600
C963        C  0.57920229  0.11621533  0.53207561     0.07400
C964        C  0.54472679  0.11354559  0.53707925    -0.02800
Br965      Br  0.52987154  0.11327983  0.56878711    -0.01300
Br966      Br  0.47437727  0.10839028  0.52660734    -0.01400
Br967      Br  0.63621006  0.11804241  0.50160253    -0.01300
Br968      Br  0.57739181  0.10657624  0.45948080    -0.01300
C969        C  0.35401205  0.33842798  0.58436890    -0.02500
C970        C  0.38395919  0.34807410  0.59990176     0.07200
C971        C  0.39089328  0.37413902  0.61771846    -0.02600
C972        C  0.37114977  0.39330378  0.61833720    -0.02600
C973        C  0.34447253  0.38672877  0.60123636     0.07400
C974        C  0.33469608  0.35804817  0.58494144    -0.02800
Br975      Br  0.29834172  0.34923529  0.56128690    -0.01300
Br976      Br  0.34174564  0.30174777  0.56031241    -0.01400
Br977      Br  0.38150371  0.42983384  0.64207728    -0.01300
Br978      Br  0.42831258  0.38480477  0.64100601    -0.01300
C979        C  0.53605268  0.42344201  0.49140817    -0.02500
C980        C  0.56686335  0.45847542  0.49812926     0.07200
C981        C  0.56828743  0.47106273  0.52101660    -0.02600
C982        C  0.54217839  0.44644845  0.53757367    -0.02600
C983        C  0.51540123  0.40914609  0.53150419     0.07400
C984        C  0.51107449  0.39836854  0.50808582    -0.02800
Br985      Br  0.47376801  0.34806282  0.49867800    -0.01300
Br986      Br  0.52718086  0.40992082  0.45912250    -0.01400
Br987      Br  0.54274243  0.46378630  0.56858601    -0.01300
Br988      Br  0.60642785  0.52098051  0.53040285    -0.01300
C989        C  0.49031171  0.23985256  0.53203839    -0.02500
C990        C  0.45890515  0.24422339  0.53351134     0.07200
C991        C  0.42945712  0.22558314  0.51744327    -0.02600
C992        C  0.43307763  0.20575871  0.49877498    -0.02600
C993        C  0.46553674  0.20299165  0.49659353     0.07400
C994        C  0.49355356  0.21920427  0.51390546    -0.02800
Br995      Br  0.53624724  0.21236300  0.51395618    -0.01300
Br996      Br  0.52858165  0.26080666  0.55566884    -0.01400
Br997      Br  0.39440183  0.18494342  0.47547794    -0.01300
Br998      Br  0.38456008  0.22812293  0.52039388    -0.01300
C999        C  0.54649967  0.34383430  0.64831984    -0.02500
C1000       C  0.52460726  0.31328875  0.63368696     0.07200
C1001       C  0.52963957  0.28236191  0.63403567    -0.02600
C1002       C  0.55875724  0.28355057  0.64730413    -0.02600
C1003       C  0.58145061  0.31451976  0.66192016     0.07400
C1004       C  0.57503700  0.34479708  0.66194700    -0.02800
Br1005     Br  0.60864711  0.39068757  0.67749955    -0.01300
Br1006     Br  0.53654659  0.38429015  0.65003500    -0.01400
Br1007     Br  0.56861365  0.24374022  0.64321616    -0.01300
Br1008     Br  0.49729869  0.23863807  0.61568806    -0.01300
C1009       C  0.35343574  0.33844391  0.93835594    -0.02500
C1010       C  0.38429777  0.34904452  0.92339261     0.07200
C1011       C  0.39209994  0.37564937  0.90580563    -0.02600
C1012       C  0.37190812  0.39428550  0.90474831    -0.02600
C1013       C  0.34385382  0.38663072  0.92124736     0.07400
C1014       C  0.33298477  0.35691829  0.93710057    -0.02800
Br1015     Br  0.29296541  0.34426796  0.95895589    -0.01300
Br1016     Br  0.34214602  0.30235767  0.96272451    -0.01400
Br1017     Br  0.38351341  0.43162962  0.88118759    -0.01300
Br1018     Br  0.43130744  0.38756271  0.88350197    -0.01300
C1019       C  0.52011578  0.42682499  0.00180791    -0.02500
C1020       C  0.52955658  0.40436658  0.98880892     0.07200
C1021       C  0.56334069  0.40521929  0.99309889    -0.02600
C1022       C  0.58840571  0.42957224  0.00976380    -0.02600
C1023       C  0.57852530  0.45119015  0.02353431     0.07400
C1024       C  0.54409881  0.44956677  0.01956013    -0.02800
Br1025     Br  0.52812844  0.47639356  0.03909441    -0.01300
Br1026     Br  0.47484925  0.42710137  0.99482916    -0.01400
Br1027     Br  0.63700459  0.43417764  0.01243961    -0.01300
Br1028     Br  0.57419138  0.37064185  0.97758371    -0.01300
C1029       C  0.46669216  0.26428846  0.01836434    -0.02500
C1030       C  0.44688950  0.24759355  0.99777646     0.07200
C1031       C  0.42588977  0.20814889  0.99608795    -0.02600
C1032       C  0.42695449  0.18578447  0.01413461    -0.02600
C1033       C  0.45034196  0.20280527  0.03347464     0.07400
C1034       C  0.46941843  0.24213291  0.03575730    -0.02800
Br1035     Br  0.49946655  0.26576157  0.06284811    -0.01300
Br1036     Br  0.48882775  0.31743571  0.02334890    -0.01400
Br1037     Br  0.39811243  0.13194230  0.01161206    -0.01300
Br1038     Br  0.39816122  0.18483776  0.96829471    -0.01300
C1039       C  0.53595315  0.28302163  0.89384936    -0.02500
C1040       C  0.52434975  0.30914942  0.89144658     0.07200
C1041       C  0.54123714  0.33710963  0.87434847    -0.02600
C1042       C  0.57047455  0.33993519  0.86038475    -0.02600
C1043       C  0.58167856  0.31303807  0.86190362     0.07400
C1044       C  0.56367828  0.28432258  0.87894265    -0.02800
Br1045     Br  0.57653058  0.24655537  0.88318669    -0.01300
Br1046     Br  0.51680632  0.24796938  0.91940223    -0.01400
Br1047     Br  0.59840488  0.38469030  0.84229583    -0.01300
Br1048     Br  0.52492544  0.37276692  0.87061053    -0.01300
loop_ 
_geom_bond_atom_site_label_1 
_geom_bond_atom_site_label_2 
_geom_bond_distance 
_geom_bond_site_symmetry_2 
_ccdc_geom_bond_type 
In1           O3   2.244       .  S
In1           O4   2.279       .  S
In1          O12   2.300       .  S
In1           O6   2.227       .  S
In1           O8   2.211       .  S
In1           O9   2.287       .  S
In1          O10   2.239       .  S
In1          O13   2.244       .  S
C2            O8   1.259       .  A
C2           O10   1.262       .  A
C2         C1020   1.465       .  S
O3           C11   1.255       .  A
O4           C11   1.262       .  A
C5           O12   1.264       .  A
C5            O6   1.253       .  A
C5         C1040   1.487       .  S
C7            O9   1.264       .  A
C7           O13   1.257       .  A
C7         C1030   1.488       .  S
C11        C1010   1.486       .  S
In14         O16   2.244       .  S
In14         O17   2.235       .  S
In14         O25   2.233       .  S
In14         O19   2.264       .  S
In14         O21   2.286       .  S
In14         O22   2.238       .  S
In14         O23   2.227       .  S
In14         O26   2.281       .  S
C15          O21   1.264       .  A
C15          O23   1.256       .  A
C15         C990   1.487       .  S
O16          C24   1.262       .  A
O17          C24   1.262       .  A
C18          O25   1.259       .  A
C18          O19   1.263       .  A
C18         C970   1.491       .  S
C20          O22   1.257       .  A
C20          O26   1.262       .  A
C20        C1000   1.486       .  S
C24         C983   1.480       .  S
In27         O29   2.241       .  S
In27         O30   2.232       .  S
In27         O38   2.233       .  S
In27         O32   2.261       .  S
In27         O34   2.268       .  S
In27         O35   2.239       .  S
In27         O36   2.248       .  S
In27         O39   2.263       .  S
C28          O34   1.260       .  A
C28          O36   1.258       .  A
C28         C940   1.491       .  S
O29          C37   1.257       .  A
O30          C37   1.259       .  A
C31          O38   1.260       .  A
C31          O32   1.265       .  A
C31         C933   1.481       .  S
C33          O35   1.260       .  A
C33          O39   1.265       .  A
C33         C950   1.494       .  S
C37         C963   1.472       .  S
In40         O42   2.234       .  S
In40         O43   2.263       .  S
In40         O51   2.286       .  S
In40         O45   2.245       .  S
In40         O47   2.246       .  S
In40         O48   2.279       .  S
In40         O49   2.244       .  S
In40         O52   2.221       .  S
C41          O47   1.261       .  A
C41          O49   1.256       .  A
C41         C960   1.479       .  S
O42          C50   1.260       .  A
O43          C50   1.264       .  A
C44          O51   1.263       .  A
C44          O45   1.258       .  A
C44         C923   1.499       .  S
C46          O48   1.266       .  A
C46          O52   1.258       .  A
C46         C913   1.487       .  S
C50         C993   1.495       .  S
In53         O55   2.281       .  S
In53         O56   2.240       .  S
In53         O64   2.295       .  S
In53         O58   2.249       .  S
In53         O60   2.250       .  S
In53         O61   2.284       .  S
In53         O62   2.237       .  S
In53         O65   2.246       .  S
C54          O60   1.261       .  A
C54          O62   1.258       .  A
C54         C890   1.476       .  S
O55          C63   1.265       .  A
O56          C63   1.257       .  A
C57          O64   1.261       .  A
C57          O58   1.256       .  A
C57         C900   1.497       .  S
C59          O61   1.265       .  A
C59          O65   1.259       .  A
C59        C1033   1.488       .  S
C63         C880   1.489       .  S
In66         O68   2.226       .  S
In66         O69   2.272       .  S
In66         O77   2.241       .  S
In66         O71   2.281       .  S
In66         O73   2.239       .  S
In66         O74   2.259       .  S
In66         O75   2.235       .  S
In66         O78   2.270       .  S
C67          O73   1.260       .  A
C67          O75   1.257       .  A
C67        C1023   1.477       .  S
O68          C76   1.256       .  A
O69          C76   1.264       .  A
C70          O77   1.259       .  A
C70          O71   1.266       .  A
C70         C873   1.498       .  S
C72          O74   1.257       .  A
C72          O78   1.263       .  A
C72         C860   1.492       .  S
C76         C850   1.478       .  S
C79          C80   1.538       .  S
C79          C85   1.553       .  S
C79          C83   1.557       .  S
C79         C843   1.574       .  S
C80          H87   1.090       .  S
C80          C81   1.366       .  D
C81          C82   1.552       .  S
C81         C870   1.512       .  S
C82          C86   1.548       .  S
C82          C84   1.554       .  S
C82          H88   1.110       .  S
C83          H89   1.085       .  S
C83          C84   1.378       .  D
C84         C903   1.524       .  S
C85          H90   1.082       .  S
C85          C86   1.371       .  D
C86         C830   1.519       .  S
C91          C92   1.557       .  S
C91          C97   1.539       .  S
C91          C95   1.556       .  S
C91         C840   1.572       .  S
C92          H99   1.080       .  S
C92          C93   1.373       .  D
C93          C94   1.548       .  S
C93         C810   1.523       .  S
C94          C98   1.555       .  S
C94          C96   1.551       .  S
C94         H100   1.109       .  S
C95         H101   1.089       .  S
C95          C96   1.374       .  D
C96         C920   1.520       .  S
C97         H102   1.087       .  S
C97          C98   1.367       .  D
C98         C820   1.518       .  S
In103       O105   2.228       .  S
In103       O106   2.276       .  S
In103       O114   2.291       .  S
In103       O108   2.252       .  S
In103       O110   2.232       .  S
In103       O111   2.272       .  S
In103       O112   2.264       .  S
In103       O115   2.229       .  S
C104        O110   1.261       .  A
C104        O112   1.260       .  A
C104        C980   1.485       .  S
O105        C113   1.258       .  A
O106        C113   1.263       .  A
C107        O114   1.262       .  A
C107        O108   1.257       .  A
C107        C823   1.494       .  S
C109        O111   1.263       .  A
C109        O115   1.258       .  A
C109        C793   1.482       .  S
C113        C803   1.487       .  S
In116       O118   2.229       .  S
In116       O119   2.296       .  S
In116       O127   2.284       .  S
In116       O121   2.246       .  S
In116       O123   2.243       .  S
In116       O124   2.242       .  S
In116       O125   2.234       .  S
In116       O128   2.308       .  S
C117        O123   1.262       .  A
C117        O125   1.260       .  A
C117        C770   1.474       .  S
O118        C126   1.257       .  A
O119        C126   1.266       .  A
C120        O127   1.264       .  A
C120        O121   1.258       .  A
C120        C780   1.501       .  S
C122        O124   1.254       .  A
C122        O128   1.265       .  A
C122        C863   1.498       .  S
C126        C760   1.503       .  S
In129       O131   2.271       .  S
In129       O132   2.236       .  S
In129       O140   2.286       .  S
In129       O134   2.245       .  S
In129       O136   2.235       .  S
In129       O137   2.277       .  S
In129       O138   2.258       .  S
In129       O141   2.250       .  S
C130        O136   1.258       .  A
C130        O138   1.257       .  A
C130        C773   1.475       .  S
O131        C139   1.264       .  A
O132        C139   1.259       .  A
C133        O140   1.264       .  A
C133        O134   1.258       .  A
C133        C833   1.497       .  S
C135        O137   1.262       .  A
C135        O141   1.259       .  A
C135        C750   1.494       .  S
C139        C740   1.484       .  S
In142       O144   2.241       .  S
In142       O145   2.260       .  S
In142       O153   2.270       .  S
In142       O147   2.241       .  S
In142       O149   2.235       .  S
In142       O150   2.288       .  S
In142       O151   2.237       .  S
In142       O154   2.234       .  S
C143        O149   1.262       .  A
C143        O151   1.260       .  A
C143        C893   1.478       .  S
O144        C152   1.259       .  A
O145        C152   1.263       .  A
C146        O153   1.262       .  A
C146        O147   1.257       .  A
C146        C730   1.491       .  S
C148        O150   1.264       .  A
C148        O154   1.257       .  A
C148        C753   1.495       .  S
C152        C723   1.486       .  S
C155        C156   1.539       .  S
C155        C161   1.557       .  S
C155        C159   1.548       .  S
C155        C710   1.570       .  S
C156        H163   1.084       .  S
C156        C157   1.361       .  D
C157        C158   1.558       .  S
C157        C953   1.495       .  S
C158        C162   1.536       .  S
C158        C160   1.552       .  S
C158        H164   1.095       .  S
C159        H165   1.080       .  S
C159        C160   1.381       .  D
C160        C700   1.537       .  S
C161        H166   1.085       .  S
C161        C162   1.372       .  D
C162       C1003   1.515       .  S
C167        C168   1.549       .  S
C167        C173   1.560       .  S
C167        C171   1.534       .  S
C167        C713   1.568       .  S
C168        H175   1.087       .  S
C168        C169   1.380       .  D
C169        C170   1.547       .  S
C169        C783   1.532       .  S
C170        C174   1.541       .  S
C170        C172   1.558       .  S
C170        H176   1.097       .  S
C171        H177   1.087       .  S
C171        C172   1.355       .  D
C172        C733   1.491       .  S
C173        H178   1.082       .  S
C173        C174   1.378       .  D
C174       C1043   1.522       .  S
In179       O181   2.229       .  S
In179       O182   2.278       .  S
In179       O190   2.288       .  S
In179       O184   2.254       .  S
In179       O186   2.230       .  S
In179       O187   2.264       .  S
In179       O188   2.247       .  S
In179       O191   2.254       .  S
C180        O186   1.259       .  A
C180        O188   1.259       .  A
C180        C693   1.470       .  S
O181        C189   1.256       .  A
O182        C189   1.264       .  A
C183        O190   1.260       .  A
C183        O184   1.258       .  A
C183        C703   1.493       .  S
C185        O187   1.261       .  A
C185        O191   1.259       .  A
C185        C680   1.494       .  S
C189        C800   1.473       .  S
In192       O194   2.238       .  S
In192       O195   2.239       .  S
In192       O203   2.231       .  S
In192       O197   2.270       .  S
In192       O199   2.265       .  S
In192       O200   2.234       .  S
In192       O201   2.255       .  S
In192       O204   2.283       .  S
C193        O199   1.257       .  A
C193        O201   1.260       .  A
C193        C943   1.490       .  S
O194        C202   1.256       .  A
O195        C202   1.259       .  A
C196        O203   1.256       .  A
C196        O197   1.264       .  A
C196        C670   1.481       .  S
C198        O200   1.262       .  A
C198        O204   1.268       .  A
C198        C813   1.501       .  S
C202        C690   1.465       .  S
In205       O207   2.269       .  S
In205       O208   2.230       .  S
In205       O216   2.259       .  S
In205       O210   2.240       .  S
In205       O212   2.222       .  S
In205       O213   2.262       .  S
In205       O214   2.243       .  S
In205       O217   2.223       .  S
C206        O212   1.260       .  A
C206        O214   1.258       .  A
C206        C650   1.471       .  S
O207        C215   1.261       .  A
O208        C215   1.254       .  A
C209        O216   1.263       .  A
C209        O210   1.260       .  A
C209        C660   1.489       .  S
C211        O213   1.265       .  A
C211        O217   1.260       .  A
C211        C720   1.482       .  S
C215        C640   1.475       .  S
In218       O220   2.228       .  S
In218       O221   2.282       .  S
In218       O229   2.279       .  S
In218       O223   2.243       .  S
In218       O225   2.212       .  S
In218       O226   2.276       .  S
In218       O227   2.228       .  S
In218       O230   2.254       .  S
C219        O225   1.262       .  A
C219        O227   1.259       .  A
C219        C653   1.465       .  S
O220        C228   1.256       .  A
O221        C228   1.267       .  A
C222        O229   1.265       .  A
C222        O223   1.258       .  A
C222        C630   1.491       .  S
C224        O226   1.265       .  A
C224        O230   1.260       .  A
C224        C883   1.499       .  S
C228        C623   1.490       .  S
In231       O233   2.249       .  S
In231       O234   2.240       .  S
In231       O242   2.214       .  S
In231       O236   2.279       .  S
In231       O238   2.272       .  S
In231       O239   2.234       .  S
In231       O240   2.242       .  S
In231       O243   2.282       .  S
C232        O238   1.260       .  A
C232        O240   1.259       .  A
C232        C593   1.487       .  S
O233        C241   1.256       .  A
O234        C241   1.258       .  A
C235        O242   1.257       .  A
C235        O236   1.265       .  A
C235       C1013   1.482       .  S
C237        O239   1.259       .  A
C237        O243   1.267       .  A
C237        C610   1.495       .  S
C241        C600   1.477       .  S
In244       O246   2.238       .  S
In244       O247   2.239       .  S
In244       O255   2.224       .  S
In244       O249   2.262       .  S
In244       O251   2.243       .  S
In244       O252   2.244       .  S
In244       O253   2.249       .  S
In244       O256   2.268       .  S
C245        O251   1.259       .  A
C245        O253   1.261       .  A
C245        C643   1.483       .  S
O246        C254   1.257       .  A
O247        C254   1.261       .  A
C248        O255   1.259       .  A
C248        O249   1.263       .  A
C248        C853   1.482       .  S
C250        O252   1.259       .  A
C250        O256   1.263       .  A
C250        C580   1.483       .  S
C254        C603   1.478       .  S
In257       O259   2.224       .  S
In257       O260   2.271       .  S
In257       O268   2.282       .  S
In257       O262   2.230       .  S
In257       O264   2.241       .  S
In257       O265   2.262       .  S
In257       O266   2.243       .  S
In257       O269   2.246       .  S
C258        O264   1.257       .  A
C258        O266   1.257       .  A
C258        C573   1.474       .  S
O259        C267   1.259       .  A
O260        C267   1.267       .  A
C261        O268   1.266       .  A
C261        O262   1.258       .  A
C261        C560   1.495       .  S
C263        O265   1.259       .  A
C263        O269   1.260       .  A
C263        C550   1.482       .  S
C267        C973   1.479       .  S
In270       O272   2.236       .  S
In270       O273   2.298       .  S
In270       O281   2.265       .  S
In270       O275   2.255       .  S
In270       O277   2.229       .  S
In270       O278   2.264       .  S
In270       O279   2.240       .  S
In270       O282   2.232       .  S
C271        O277   1.261       .  A
C271        O279   1.260       .  A
C271        C540   1.472       .  S
O272        C280   1.258       .  A
O273        C280   1.265       .  A
C274        O281   1.263       .  A
C274        O275   1.257       .  A
C274        C530   1.488       .  S
C276        O278   1.264       .  A
C276        O282   1.259       .  A
C276        C743   1.486       .  S
C280        C590   1.501       .  S
In283       O285   2.228       .  S
In283       O286   2.276       .  S
In283       O294   2.274       .  S
In283       O288   2.254       .  S
In283       O290   2.248       .  S
In283       O291   2.252       .  S
In283       O292   2.238       .  S
In283       O295   2.257       .  S
C284        O290   1.260       .  A
C284        O292   1.259       .  A
C284        C570   1.478       .  S
O285        C293   1.257       .  A
O286        C293   1.262       .  A
C287        O294   1.261       .  A
C287        O288   1.256       .  A
C287        C520   1.482       .  S
C289        O291   1.262       .  A
C289        O295   1.261       .  A
C289        C510   1.487       .  S
C293        C790   1.484       .  S
C296        C297   1.536       .  S
C296        C302   1.551       .  S
C296        C300   1.549       .  S
C296        C503   1.565       .  S
C297        H304   1.107       .  S
C297        C298   1.365       .  D
C298        C299   1.553       .  S
C298        C523   1.512       .  S
C299        C303   1.555       .  S
C299        C301   1.550       .  S
C299        H305   1.108       .  S
C300        H306   1.088       .  S
C300        C301   1.368       .  D
C301        C483   1.516       .  S
C302        H307   1.091       .  S
C302        C303   1.374       .  D
C303        C490   1.515       .  S
C308        C309   1.549       .  S
C308        C314   1.548       .  S
C308        C312   1.548       .  S
C308        C500   1.574       .  S
C309        H316   1.080       .  S
C309        C310   1.367       .  D
C310        C311   1.550       .  S
C310        C633   1.505       .  S
C311        C315   1.549       .  S
C311        C313   1.544       .  S
C311        H317   1.107       .  S
C312        H318   1.084       .  S
C312        C313   1.367       .  D
C313        C533   1.502       .  S
C314        H319   1.087       .  S
C314        C315   1.375       .  D
C315        C583   1.524       .  S
In320       O322   2.254       .  S
In320       O323   2.283       .  S
In320       O331   2.282       .  S
In320       O325   2.240       .  S
In320       O327   2.241       .  S
In320       O328   2.243       .  S
In320       O329   2.259       .  S
In320       O332   2.264       .  S
C321        O327   1.257       .  A
C321        O329   1.259       .  A
C321        C470   1.482       .  S
O322        C330   1.259       .  A
O323        C330   1.263       .  A
C324        O331   1.262       .  A
C324        O325   1.257       .  A
C324        C493   1.484       .  S
C326        O328   1.261       .  A
C326        O332   1.262       .  A
C326        C460   1.489       .  S
C330        C910   1.499       .  S
In333       O335   2.237       .  S
In333       O336   2.277       .  S
In333       O344   2.286       .  S
In333       O338   2.243       .  S
In333       O340   2.244       .  S
In333       O341   2.266       .  S
In333       O342   2.271       .  S
In333       O345   2.227       .  S
C334        O340   1.257       .  A
C334        O342   1.258       .  A
C334        C473   1.474       .  S
O335        C343   1.258       .  A
O336        C343   1.263       .  A
C337        O344   1.263       .  A
C337        O338   1.259       .  A
C337        C450   1.494       .  S
C339        O341   1.264       .  A
C339        O345   1.259       .  A
C339        C513   1.478       .  S
C343        C930   1.482       .  S
In346       O348   2.218       .  S
In346       O349   2.277       .  S
In346       O357   2.279       .  S
In346       O351   2.251       .  S
In346       O353   2.226       .  S
In346       O354   2.267       .  S
In346       O355   2.249       .  S
In346       O358   2.257       .  S
C347        O353   1.257       .  A
C347        O355   1.256       .  A
C347        C440   1.470       .  S
O348        C356   1.258       .  A
O349        C356   1.266       .  A
C350        O357   1.267       .  A
C350        O351   1.258       .  A
C350        C480   1.497       .  S
C352        O354   1.258       .  A
C352        O358   1.258       .  A
C352        C553   1.485       .  S
C356        C673   1.481       .  S
In359       O361   2.303       .  S
In359       O362   2.231       .  S
In359       O370   2.268       .  S
In359       O364   2.265       .  S
In359       O366   2.242       .  S
In359       O367   2.276       .  S
In359       O368   2.227       .  S
In359       O371   2.234       .  S
C360        O366   1.261       .  A
C360        O368   1.257       .  A
C360        C443   1.467       .  S
O361        C369   1.264       .  A
O362        C369   1.253       .  A
C363        O370   1.263       .  A
C363        O364   1.262       .  A
C363        C433   1.502       .  S
C365        O367   1.265       .  A
C365        O371   1.257       .  A
C365        C463   1.477       .  S
C369        C683   1.488       .  S
In372       O374   2.238       .  S
In372       O375   2.244       .  S
In372       O383   2.224       .  S
In372       O377   2.284       .  S
In372       O379   2.280       .  S
In372       O380   2.237       .  S
In372       O381   2.233       .  S
In372       O384   2.267       .  S
C373        O379   1.263       .  A
C373        O381   1.257       .  A
C373        C620   1.488       .  S
O374        C382   1.258       .  A
O375        C382   1.260       .  A
C376        O383   1.257       .  A
C376        O377   1.266       .  A
C376        C763   1.493       .  S
C378        O380   1.259       .  A
C378        O384   1.263       .  A
C378        C420   1.490       .  S
C382        C543   1.481       .  S
C385        C386   1.547       .  S
C385        C391   1.552       .  S
C385        C389   1.542       .  S
C385        C413   1.562       .  S
C386        H393   1.078       .  S
C386        C387   1.367       .  D
C387        C388   1.545       .  S
C387        C563   1.507       .  S
C388        C392   1.551       .  S
C388        C390   1.556       .  S
C388        H394   1.107       .  S
C389        H395   1.074       .  S
C389        C390   1.374       .  D
C390        C453   1.525       .  S
C391        H396   1.081       .  S
C391        C392   1.369       .  D
C392        C430   1.509       .  S
C397        C398   1.555       .  S
C397        C403   1.549       .  S
C397        C401   1.536       .  S
C397        C410   1.564       .  S
C398        H405   1.084       .  S
C398        C399   1.374       .  D
C399        C400   1.550       .  S
C399        C423   1.512       .  S
C400        C404   1.551       .  S
C400        C402   1.551       .  S
C400        H406   1.109       .  S
C401        H407   1.088       .  S
C401        C402   1.365       .  D
C402        C663   1.509       .  S
C403        H408   1.086       .  S
C403        C404   1.368       .  D
C404        C613   1.518       .  S
C409        C410   1.427       .  A
C409        C414   1.423       .  A
C409       Br416   1.940       .  S
C410        C411   1.420       .  A
C411        C412   1.415       .  A
C411       Br418   1.923       .  S
C412        C413   1.417       .  A
C412       Br417   1.930       .  S
C413        C414   1.425       .  A
C414       Br415   1.938       .  S
C419        C420   1.410       .  A
C419        C424   1.415       .  A
C419       Br426   1.934       .  S
C420        C421   1.412       .  A
C421        C422   1.408       .  A
C421       Br428   1.937       .  S
C422        C423   1.413       .  A
C422       Br427   1.918       .  S
C423        C424   1.421       .  A
C424       Br425   1.918       .  S
C429        C430   1.409       .  A
C429        C434   1.414       .  A
C429       Br436   1.917       .  S
C430        C431   1.416       .  A
C431        C432   1.416       .  A
C431       Br438   1.925       .  S
C432        C433   1.415       .  A
C432       Br437   1.933       .  S
C433        C434   1.418       .  A
C434       Br435   1.933       .  S
C439        C440   1.413       .  A
C439        C444   1.407       .  A
C439       Br446   1.933       .  S
C440        C441   1.410       .  A
C441        C442   1.400       .  A
C441       Br448   1.935       .  S
C442        C443   1.407       .  A
C442       Br447   1.933       .  S
C443        C444   1.411       .  A
C444       Br445   1.933       .  S
C449        C450   1.408       .  A
C449        C454   1.419       .  A
C449       Br456   1.931       .  S
C450        C451   1.410       .  A
C451        C452   1.412       .  A
C451       Br458   1.941       .  S
C452        C453   1.424       .  A
C452       Br457   1.924       .  S
C453        C454   1.429       .  A
C454       Br455   1.934       .  S
C459        C460   1.414       .  A
C459        C464   1.410       .  A
C459       Br466   1.932       .  S
C460        C461   1.419       .  A
C461        C462   1.412       .  A
C461       Br468   1.931       .  S
C462        C463   1.406       .  A
C462       Br467   1.931       .  S
C463        C464   1.409       .  A
C464       Br465   1.931       .  S
C469        C470   1.416       .  A
C469        C474   1.410       .  A
C469       Br476   1.932       .  S
C470        C471   1.414       .  A
C471        C472   1.407       .  A
C471       Br478   1.934       .  S
C472        C473   1.407       .  A
C472       Br477   1.930       .  S
C473        C474   1.406       .  A
C474       Br475   1.929       .  S
C479        C480   1.413       .  A
C479        C484   1.418       .  A
C479       Br486   1.931       .  S
C480        C481   1.411       .  A
C481        C482   1.414       .  A
C481       Br488   1.935       .  S
C482        C483   1.417       .  A
C482       Br487   1.918       .  S
C483        C484   1.421       .  A
C484       Br485   1.933       .  S
C489        C490   1.419       .  A
C489        C494   1.415       .  A
C489       Br496   1.920       .  S
C490        C491   1.422       .  A
C491        C492   1.410       .  A
C491       Br498   1.918       .  S
C492        C493   1.403       .  A
C492       Br497   1.935       .  S
C493        C494   1.409       .  A
C494       Br495   1.933       .  S
C499        C500   1.432       .  A
C499        C504   1.417       .  A
C499       Br506   1.932       .  S
C500        C501   1.434       .  A
C501        C502   1.424       .  A
C501       Br508   1.939       .  S
C502        C503   1.421       .  A
C502       Br507   1.938       .  S
C503        C504   1.414       .  A
C504       Br505   1.926       .  S
C509        C510   1.417       .  A
C509        C514   1.410       .  A
C509       Br516   1.933       .  S
C510        C511   1.412       .  A
C511        C512   1.410       .  A
C511       Br518   1.930       .  S
C512        C513   1.411       .  A
C512       Br517   1.932       .  S
C513        C514   1.408       .  A
C514       Br515   1.933       .  S
C519        C520   1.405       .  A
C519        C524   1.414       .  A
C519       Br526   1.931       .  S
C520        C521   1.405       .  A
C521        C522   1.411       .  A
C521       Br528   1.935       .  S
C522        C523   1.420       .  A
C522       Br527   1.922       .  S
C523        C524   1.426       .  A
C524       Br525   1.931       .  S
C529        C530   1.409       .  A
C529        C534   1.408       .  A
C529       Br536   1.932       .  S
C530        C531   1.413       .  A
C531        C532   1.415       .  A
C531       Br538   1.930       .  S
C532        C533   1.417       .  A
C532       Br537   1.933       .  S
C533        C534   1.413       .  A
C534       Br535   1.921       .  S
C539        C540   1.410       .  A
C539        C544   1.407   1_554  A
C539       Br546   1.935   1_554  S
C540        C541   1.408       .  A
C541        C542   1.406       .  A
C541       Br548   1.934       .  S
C542        C543   1.416   1_554  A
C542       Br547   1.935       .  S
C543        C544   1.414       .  A
C544       Br545   1.932       .  S
C549        C550   1.408       .  A
C549        C554   1.410       .  A
C549       Br556   1.930       .  S
C550        C551   1.415       .  A
C551        C552   1.411       .  A
C551       Br558   1.932       .  S
C552        C553   1.410       .  A
C552       Br557   1.930       .  S
C553        C554   1.415       .  A
C554       Br555   1.932       .  S
C559        C560   1.415       .  A
C559        C564   1.407       .  A
C559       Br566   1.938       .  S
C560        C561   1.413       .  A
C561        C562   1.418       .  A
C561       Br568   1.930       .  S
C562        C563   1.421       .  A
C562       Br567   1.934       .  S
C563        C564   1.412       .  A
C564       Br565   1.925       .  S
C569        C570   1.414       .  A
C569        C574   1.407       .  A
C569       Br576   1.933       .  S
C570        C571   1.412       .  A
C571        C572   1.406       .  A
C571       Br578   1.934       .  S
C572        C573   1.412       .  A
C572       Br577   1.935       .  S
C573        C574   1.410       .  A
C574       Br575   1.935       .  S
C579        C580   1.404       .  A
C579        C584   1.413       .  A
C579       Br586   1.938       .  S
C580        C581   1.403       .  A
C581        C582   1.415       .  A
C581       Br588   1.933       .  S
C582        C583   1.429       .  A
C582       Br587   1.931       .  S
C583        C584   1.427       .  A
C584       Br585   1.923       .  S
C589        C590   1.420       .  A
C589        C594   1.419   1_554  A
C589       Br596   1.929       .  S
C590        C591   1.416       .  A
C591        C592   1.407       .  A
C591       Br598   1.932       .  S
C592        C593   1.411   1_554  A
C592       Br597   1.938       .  S
C593        C594   1.411       .  A
C594       Br595   1.930       .  S
C599        C600   1.410       .  A
C599        C604   1.406   1_556  A
C599       Br606   1.934       .  S
C600        C601   1.413   1_556  A
C601        C602   1.407       .  A
C601       Br608   1.933       .  S
C602        C603   1.411       .  A
C602       Br607   1.933       .  S
C603        C604   1.414       .  A
C604       Br605   1.934   1_554  S
C609        C610   1.413       .  A
C609        C614   1.410       .  A
C609       Br616   1.939       .  S
C610        C611   1.410       .  A
C611        C612   1.419       .  A
C611       Br618   1.931       .  S
C612        C613   1.427       .  A
C612       Br617   1.935       .  S
C613        C614   1.417       .  A
C614       Br615   1.923       .  S
C619        C620   1.414   1_554  A
C619        C624   1.407       .  A
C619       Br626   1.937       .  S
C620        C621   1.412       .  A
C621        C622   1.416   1_556  A
C621       Br628   1.929       .  S
C622        C623   1.416       .  A
C622       Br627   1.931       .  S
C623        C624   1.414       .  A
C624       Br625   1.933       .  S
C629        C630   1.412       .  A
C629        C634   1.414       .  A
C629       Br636   1.929       .  S
C630        C631   1.411       .  A
C631        C632   1.413       .  A
C631       Br638   1.933       .  S
C632        C633   1.418       .  A
C632       Br637   1.928       .  S
C633        C634   1.411       .  A
C634       Br635   1.917       .  S
C639        C640   1.409   1_554  A
C639        C644   1.408       .  A
C639       Br646   1.931       .  S
C640        C641   1.410       .  A
C641        C642   1.409   1_556  A
C641       Br648   1.935       .  S
C642        C643   1.417       .  A
C642       Br647   1.934       .  S
C643        C644   1.413       .  A
C644       Br645   1.931       .  S
C649        C650   1.413   1_554  A
C649        C654   1.403       .  A
C649       Br656   1.932       .  S
C650        C651   1.408       .  A
C651        C652   1.402   1_556  A
C651       Br658   1.931       .  S
C652        C653   1.410       .  A
C652       Br657   1.933   1_554  S
C653        C654   1.409       .  A
C654       Br655   1.936       .  S
C659        C660   1.410       .  A
C659        C664   1.410       .  A
C659       Br666   1.934       .  S
C660        C661   1.411       .  A
C661        C662   1.414       .  A
C661       Br668   1.934       .  S
C662        C663   1.422       .  A
C662       Br667   1.931       .  S
C663        C664   1.415       .  A
C664       Br665   1.918       .  S
C669        C670   1.413       .  A
C669        C674   1.412   1_655  A
C669       Br676   1.934       .  S
C670        C671   1.410       .  A
C671        C672   1.409   1_655  A
C671       Br678   1.929       .  S
C672        C673   1.409       .  A
C672       Br677   1.930       .  S
C673        C674   1.413       .  A
C674       Br675   1.931       .  S
C679        C680   1.415       .  A
C679        C684   1.415   1_655  A
C679       Br686   1.930       .  S
C680        C681   1.418       .  A
C681        C682   1.411   1_655  A
C681       Br688   1.935       .  S
C682        C683   1.411       .  A
C682       Br687   1.934       .  S
C683        C684   1.410       .  A
C684       Br685   1.929       .  S
C689        C690   1.409       .  A
C689        C694   1.404       .  A
C689       Br696   1.932       .  S
C690        C691   1.407       .  A
C691        C692   1.404       .  A
C691       Br698   1.932       .  S
C692        C693   1.412       .  A
C692       Br697   1.933       .  S
C693        C694   1.410       .  A
C694       Br695   1.932       .  S
C699        C700   1.436       .  A
C699        C704   1.416       .  A
C699       Br706   1.933       .  S
C700        C701   1.434       .  A
C701        C702   1.418       .  A
C701       Br708   1.933       .  S
C702        C703   1.403       .  A
C702       Br707   1.932       .  S
C703        C704   1.407       .  A
C704       Br705   1.942       .  S
C709        C710   1.423       .  A
C709        C714   1.422       .  A
C709       Br716   1.927       .  S
C710        C711   1.426       .  A
C711        C712   1.422       .  A
C711       Br718   1.936       .  S
C712        C713   1.424       .  A
C712       Br717   1.937       .  S
C713        C714   1.418       .  A
C714       Br715   1.925       .  S
C719        C720   1.412       .  A
C719        C724   1.412   1_565  A
C719       Br726   1.933       .  S
C720        C721   1.408       .  A
C721        C722   1.408   1_565  A
C721       Br728   1.930       .  S
C722        C723   1.413       .  A
C722       Br727   1.930       .  S
C723        C724   1.416       .  A
C724       Br725   1.934       .  S
C729        C730   1.416       .  A
C729        C734   1.410       .  A
C729       Br736   1.930       .  S
C730        C731   1.417       .  A
C731        C732   1.411       .  A
C731       Br738   1.930       .  S
C732        C733   1.408       .  A
C732       Br737   1.932       .  S
C733        C734   1.407       .  A
C734       Br735   1.931       .  S
C739        C740   1.410       .  A
C739        C744   1.410   1_655  A
C739       Br746   1.929       .  S
C740        C741   1.412       .  A
C741        C742   1.412   1_655  A
C741       Br748   1.932       .  S
C742        C743   1.415       .  A
C742       Br747   1.935       .  S
C743        C744   1.412       .  A
C744       Br745   1.931       .  S
C749        C750   1.416       .  A
C749        C754   1.409   1_554  A
C749       Br756   1.936       .  S
C750        C751   1.415       .  A
C751        C752   1.417       .  A
C751       Br758   1.931       .  S
C752        C753   1.416   1_554  A
C752       Br757   1.931   1_554  S
C753        C754   1.413       .  A
C754       Br755   1.936       .  S
C759        C760   1.419       .  A
C759        C764   1.418   1_655  A
C759       Br766   1.929       .  S
C760        C761   1.416       .  A
C761        C762   1.410   1_655  A
C761       Br768   1.933       .  S
C762        C763   1.412       .  A
C762       Br767   1.934       .  S
C763        C764   1.414       .  A
C764       Br765   1.931       .  S
C769        C770   1.410   1_554  A
C769        C774   1.403       .  A
C769       Br776   1.928       .  S
C770        C771   1.409       .  A
C771        C772   1.408   1_556  A
C771       Br778   1.931       .  S
C772        C773   1.413       .  A
C772       Br777   1.931   1_554  S
C773        C774   1.408       .  A
C774       Br775   1.932       .  S
C779        C780   1.414       .  A
C779        C784   1.418       .  A
C779       Br786   1.944       .  S
C780        C781   1.409       .  A
C781        C782   1.416       .  A
C781       Br788   1.935       .  S
C782        C783   1.427       .  A
C782       Br787   1.933       .  S
C783        C784   1.433       .  A
C784       Br785   1.932       .  S
C789        C790   1.414       .  A
C789        C794   1.413       .  A
C789       Br796   1.931       .  S
C790        C791   1.411       .  A
C791        C792   1.407       .  A
C791       Br798   1.931       .  S
C792        C793   1.408       .  A
C792       Br797   1.930       .  S
C793        C794   1.413       .  A
C794       Br795   1.931       .  S
C799        C800   1.409       .  A
C799        C804   1.415       .  A
C799       Br806   1.928       .  S
C800        C801   1.404       .  A
C801        C802   1.403       .  A
C801       Br808   1.934       .  S
C802        C803   1.415       .  A
C802       Br807   1.930       .  S
C803        C804   1.415       .  A
C804       Br805   1.929       .  S
C809        C810   1.417       .  A
C809        C814   1.409       .  A
C809       Br816   1.921       .  S
C810        C811   1.426       .  A
C811        C812   1.423       .  A
C811       Br818   1.932       .  S
C812        C813   1.414       .  A
C812       Br817   1.930       .  S
C813        C814   1.413       .  A
C814       Br815   1.939       .  S
C819        C820   1.428       .  A
C819        C824   1.420       .  A
C819       Br826   1.933       .  S
C820        C821   1.418       .  A
C821        C822   1.408       .  A
C821       Br828   1.920       .  S
C822        C823   1.409       .  A
C822       Br827   1.937       .  S
C823        C824   1.410       .  A
C824       Br825   1.931       .  S
C829        C830   1.424       .  A
C829        C834   1.420       .  A
C829       Br836   1.933       .  S
C830        C831   1.418       .  A
C831        C832   1.412       .  A
C831       Br838   1.921       .  S
C832        C833   1.413       .  A
C832       Br837   1.939       .  S
C833        C834   1.411       .  A
C834       Br835   1.930       .  S
C839        C840   1.420       .  A
C839        C844   1.421       .  A
C839       Br846   1.928       .  S
C840        C841   1.425       .  A
C841        C842   1.428       .  A
C841       Br848   1.936       .  S
C842        C843   1.428       .  A
C842       Br847   1.937       .  S
C843        C844   1.421       .  A
C844       Br845   1.925       .  S
C849        C850   1.411       .  A
C849        C854   1.411       .  A
C849       Br856   1.933       .  S
C850        C851   1.409       .  A
C851        C852   1.408       .  A
C851       Br858   1.929       .  S
C852        C853   1.410       .  A
C852       Br857   1.931       .  S
C853        C854   1.415       .  A
C854       Br855   1.933       .  S
C859        C860   1.409       .  A
C859        C864   1.412       .  A
C859       Br866   1.930       .  S
C860        C861   1.417   1_554  A
C861        C862   1.416       .  A
C861       Br868   1.933       .  S
C862        C863   1.414       .  A
C862       Br867   1.931       .  S
C863        C864   1.415   1_556  A
C864       Br865   1.928       .  S
C869        C870   1.414       .  A
C869        C874   1.412       .  A
C869       Br876   1.925       .  S
C870        C871   1.424       .  A
C871        C872   1.417       .  A
C871       Br878   1.933       .  S
C872        C873   1.412       .  A
C872       Br877   1.932       .  S
C873        C874   1.416       .  A
C874       Br875   1.937       .  S
C879        C880   1.412       .  A
C879        C884   1.415   1_545  A
C879       Br886   1.934       .  S
C880        C881   1.410       .  A
C881        C882   1.414   1_545  A
C881       Br888   1.930       .  S
C882        C883   1.416       .  A
C882       Br887   1.930       .  S
C883        C884   1.418       .  A
C884       Br885   1.932       .  S
C889        C890   1.411       .  A
C889        C894   1.405   1_554  A
C889       Br896   1.930   1_554  S
C890        C891   1.409       .  A
C891        C892   1.407       .  A
C891       Br898   1.931       .  S
C892        C893   1.415   1_554  A
C892       Br897   1.934       .  S
C893        C894   1.411       .  A
C894       Br895   1.933       .  S
C899        C900   1.412       .  A
C899        C904   1.412       .  A
C899       Br906   1.939       .  S
C900        C901   1.409       .  A
C901        C902   1.419       .  A
C901       Br908   1.932       .  S
C902        C903   1.423       .  A
C902       Br907   1.917       .  S
C903        C904   1.417       .  A
C904       Br905   1.915       .  S
C909        C910   1.418       .  A
C909        C914   1.415   1_565  A
C909       Br916   1.931       .  S
C910        C911   1.415       .  A
C911        C912   1.411   1_565  A
C911       Br918   1.930       .  S
C912        C913   1.410       .  A
C912       Br917   1.933       .  S
C913        C914   1.413       .  A
C914       Br915   1.932       .  S
C919        C920   1.421       .  A
C919        C924   1.420       .  A
C919       Br926   1.920       .  S
C920        C921   1.415       .  A
C921        C922   1.412       .  A
C921       Br928   1.917       .  S
C922        C923   1.414       .  A
C922       Br927   1.939       .  S
C923        C924   1.413       .  A
C924       Br925   1.933       .  S
C929        C930   1.410       .  A
C929        C934   1.411   1_565  A
C929       Br936   1.928       .  S
C930        C931   1.411       .  A
C931        C932   1.410   1_565  A
C931       Br938   1.931       .  S
C932        C933   1.412       .  A
C932       Br937   1.933       .  S
C933        C934   1.409       .  A
C934       Br935   1.928       .  S
C939        C940   1.414       .  A
C939        C944   1.415       .  A
C939       Br946   1.931       .  S
C940        C941   1.416       .  A
C941        C942   1.408       .  A
C941       Br948   1.936       .  S
C942        C943   1.414       .  A
C942       Br947   1.937       .  S
C943        C944   1.414       .  A
C944       Br945   1.930       .  S
C949        C950   1.417       .  A
C949        C954   1.412       .  A
C949       Br956   1.931       .  S
C950        C951   1.418       .  A
C951        C952   1.413       .  A
C951       Br958   1.931       .  S
C952        C953   1.408       .  A
C952       Br957   1.931       .  S
C953        C954   1.408       .  A
C954       Br955   1.931       .  S
C959        C960   1.415       .  A
C959        C964   1.406       .  A
C959       Br966   1.933       .  S
C960        C961   1.410       .  A
C961        C962   1.406       .  A
C961       Br968   1.932       .  S
C962        C963   1.412       .  A
C962       Br967   1.934       .  S
C963        C964   1.408       .  A
C964       Br965   1.934       .  S
C969        C970   1.418       .  A
C969        C974   1.411       .  A
C969       Br976   1.933       .  S
C970        C971   1.417       .  A
C971        C972   1.410       .  A
C971       Br978   1.933       .  S
C972        C973   1.407       .  A
C972       Br977   1.929       .  S
C973        C974   1.409       .  A
C974       Br975   1.933       .  S
C979        C980   1.412       .  A
C979        C984   1.405       .  A
C979       Br986   1.934       .  S
C980        C981   1.416       .  A
C981        C982   1.411       .  A
C981       Br988   1.932       .  S
C982        C983   1.411       .  A
C982       Br987   1.932       .  S
C983        C984   1.412       .  A
C984       Br985   1.934       .  S
C989        C990   1.411       .  A
C989        C994   1.408       .  A
C989       Br996   1.936       .  S
C990        C991   1.412       .  A
C991        C992   1.415       .  A
C991       Br998   1.931       .  S
C992        C993   1.418       .  A
C992       Br997   1.932       .  S
C993        C994   1.419       .  A
C994       Br995   1.938       .  S
C999       C1000   1.405       .  A
C999       C1004   1.410       .  A
C999      Br1006   1.934       .  S
C1000      C1001   1.407       .  A
C1001      C1002   1.415       .  A
C1001     Br1008   1.932       .  S
C1002      C1003   1.421       .  A
C1002     Br1007   1.917       .  S
C1003      C1004   1.417       .  A
C1004     Br1005   1.915       .  S
C1009      C1010   1.414       .  A
C1009      C1014   1.413       .  A
C1009     Br1016   1.932       .  S
C1010      C1011   1.412       .  A
C1011      C1012   1.409       .  A
C1011     Br1018   1.930       .  S
C1012      C1013   1.409       .  A
C1012     Br1017   1.931       .  S
C1013      C1014   1.413       .  A
C1014     Br1015   1.931       .  S
C1019      C1020   1.405   1_554  A
C1019      C1024   1.407       .  A
C1019     Br1026   1.932   1_554  S
C1020      C1021   1.409       .  A
C1021      C1022   1.401   1_556  A
C1021     Br1028   1.938       .  S
C1022      C1023   1.413       .  A
C1022     Br1027   1.935       .  S
C1023      C1024   1.417       .  A
C1024     Br1025   1.932       .  S
C1029      C1030   1.414   1_554  A
C1029      C1034   1.409       .  A
C1029     Br1036   1.930       .  S
C1030      C1031   1.410       .  A
C1031      C1032   1.415   1_556  A
C1031     Br1038   1.929       .  S
C1032      C1033   1.414       .  A
C1032     Br1037   1.926       .  S
C1033      C1034   1.410       .  A
C1034     Br1035   1.933       .  S
C1039      C1040   1.406       .  A
C1039      C1044   1.417       .  A
C1039     Br1046   1.935       .  S
C1040      C1041   1.406       .  A
C1041      C1042   1.411       .  A
C1041     Br1048   1.937       .  S
C1042      C1043   1.421       .  A
C1042     Br1047   1.916       .  S
C1043      C1044   1.426       .  A
C1044     Br1045   1.920       .  S
