geometry optimzed in LAMMPS
_audit_creation_date              2020-11-30 
_audit_creation_method            'lammps2cif' 
_symmetry_space_group_name_H-M    'P1' 
_symmetry_Int_Tables_number       1 
_symmetry_cell_setting            triclinic 
loop_ 
_symmetry_equiv_pos_as_xyz 
  x,y,z 
_cell_length_a                    36.13066448882887 
_cell_length_b                    36.13227271217805 
_cell_length_c                    43.0750531028423 
_cell_angle_alpha                 89.96177549318216 
_cell_angle_beta                  89.77747213229442 
_cell_angle_gamma                 89.4263566440271 
loop_ 
_atom_site_label 
_atom_site_type_symbol 
_atom_site_fract_x 
_atom_site_fract_y 
_atom_site_fract_z 
_atom_site_charge 
O1          O  0.29776309  0.05097439  0.10854684    -0.56560
C2          C  0.27051267  0.42916014  0.14599405     0.76070
O3          O  0.21129762  0.01633384  0.16590994    -0.57720
C4          C  0.27096317  0.07333429  0.10294411     0.76040
C5          C  0.23291426  0.48038923  0.06481213     0.78430
Cd6        Cd  0.25512584  0.50145801  0.12474599     1.37460
O7          O  0.29748453  0.45027982  0.13899563    -0.56560
O8          O  0.26667443  0.48039871  0.07296299    -0.55370
C9          C  0.23663677  0.02163041  0.18594997     0.78390
O10         O  0.20881087  0.48827154  0.08558879    -0.57740
O11         O  0.23789807  0.44142834  0.14170982    -0.56190
O12         O  0.23838783  0.06242748  0.10872968    -0.56180
O13         O  0.26998427  0.01985503  0.17653678    -0.55350
O14         O  0.27993857  0.29926596  0.13193137    -0.56560
C15         C  0.27571177  0.39219797  0.15932965     0.76070
O16         O  0.26126677  0.31959191  0.24244844    -0.57720
C17         C  0.27970809  0.26494334  0.13738101     0.76040
C18         C  0.35446881  0.31362106  0.21534153     0.78430
Cd19       Cd  0.28253451  0.32014596  0.18720449     1.37470
O20         O  0.24806082  0.37343792  0.16781429    -0.56560
O21         O  0.34100030  0.34525369  0.20932704    -0.55370
C22         C  0.22707865  0.31718310  0.23698163     0.78390
O23         O  0.33486464  0.28599137  0.20849421    -0.57740
O24         O  0.30733952  0.37775062  0.16350484    -0.56190
O25         O  0.27998525  0.25572297  0.16569368    -0.56180
O26         O  0.21814260  0.31528583  0.20868281    -0.55350
O27         O  0.01240901  0.33486648  0.26543746    -0.56560
C28         C  0.39125644  0.30817468  0.22888875     0.76070
O29         O  0.47357588  0.24241814  0.21247329    -0.57720
C30         C  0.03510445  0.30844957  0.27133396     0.76040
C31         C  0.44408397  0.26603983  0.31018521     0.78430
Cd32       Cd  0.46323396  0.29077143  0.25037942     1.37460
O33         O  0.41341042  0.33467557  0.23453874    -0.56560
O34         O  0.44119610  0.29991371  0.30261833    -0.55370
C35         C  0.48213465  0.26482430  0.19083828     0.78390
O36         O  0.45351374  0.24320362  0.28900383    -0.57740
O37         O  0.40233028  0.27555072  0.23472703    -0.56190
O38         O  0.02456654  0.27574213  0.26603060    -0.56180
O39         O  0.48453192  0.29885148  0.19785931    -0.55350
O40         O  0.17870231  0.37297075  0.33250888    -0.56560
C41         C  0.14785978  0.26594853  0.36212922     0.76070
O42         O  0.09211496  0.28657955  0.29167595    -0.57720
C43         C  0.15116944  0.39309732  0.33981912     0.76040
C44         C  0.19927371  0.31740852  0.26217328     0.78430
Cd45       Cd  0.14404106  0.32103481  0.31215089     1.37460
O46         O  0.14451768  0.30015980  0.36751708    -0.56560
O47         O  0.20830479  0.31567459  0.29046261    -0.55370
C48         C  0.07193224  0.31410178  0.28456019     0.78390
O49         O  0.16503574  0.32007055  0.25675331    -0.57740
O50         O  0.15007019  0.25683333  0.33384719    -0.56190
O51         O  0.11944325  0.38011638  0.33446711    -0.56180
O52         O  0.08489009  0.34582286  0.29001527    -0.55350
O53         O  0.41425473  0.16790201  0.01492971    -0.56560
C54         C  0.03742252  0.19500322  0.47976281     0.76070
O55         O  0.44981860  0.25312445  0.45930608    -0.57720
C56         C  0.39225054  0.19496817  0.02075195     0.76040
C57         C  0.48338085  0.22709898  0.06159789     0.78430
Cd58       Cd  0.46482194  0.20958686  0.00049054     1.37470
O59         O  0.01603681  0.16788525  0.48566475    -0.56560
O60         O  0.48090983  0.19382059  0.05230000    -0.55370
C61         C  0.44660185  0.22729964  0.43928761     0.78390
O62         O  0.47958890  0.25290246  0.04154974    -0.57740
O63         O  0.02543057  0.22750787  0.48528688    -0.56190
O64         O  0.40368469  0.22751456  0.01549037    -0.56180
O65         O  0.44914836  0.19403363  0.44873692    -0.55350
O66         O  0.28445432  0.20321374  0.11739421    -0.56560
C67         C  0.27627989  0.11023723  0.08961818     0.76070
O68         O  0.26286682  0.18340891  0.00672623    -0.57720
C69         C  0.27989216  0.23733007  0.11214118     0.76040
C70         C  0.35528004  0.18980386  0.03400464     0.78430
Cd71       Cd  0.28333648  0.18250469  0.06205525     1.37460
O72         O  0.24868171  0.13054076  0.08297974    -0.56560
O73         O  0.34216779  0.15813537  0.03951491    -0.55370
C74         C  0.22857871  0.18594415  0.01215869     0.78390
O75         O  0.33524678  0.21742903  0.04123009    -0.57740
O76         O  0.30793526  0.12315585  0.08367553    -0.56190
O77         O  0.27617677  0.24642456  0.08396739    -0.56140
O78         O  0.21926482  0.18763584  0.04045182    -0.55350
O79         O  0.13102127  0.05265656  0.38981453    -0.56560
C80         C  0.15670805  0.42985171  0.35325810     0.76070
O81         O  0.22024818  0.01369234  0.33600699    -0.57720
C82         C  0.15799026  0.07381706  0.39651297     0.76040
C83         C  0.19260228  0.48020977  0.43598313     0.78430
Cd84       Cd  0.17335824  0.00137501  0.37520734     1.37470
O85         O  0.13008857  0.45234734  0.35922851    -0.56560
O86         O  0.15915878  0.48192256  0.42704731    -0.55370
C87         C  0.19650919  0.02187355  0.31517341     0.78390
O88         O  0.21763965  0.48618175  0.41565965    -0.57740
O89         O  0.18937675  0.44047870  0.35876982    -0.56190
O90         O  0.19057335  0.06150775  0.39200483    -0.56180
O91         O  0.16266899  0.02249780  0.32330033    -0.55350
O92         O  0.18049925  0.12989945  0.41753098    -0.56560
C93         C  0.14836657  0.23828665  0.38736781     0.76070
O94         O  0.09361354  0.21772351  0.45883833    -0.57720
C95         C  0.15282405  0.11088217  0.40971022     0.76040
C96         C  0.20103198  0.18610713  0.48696896     0.78430
Cd97       Cd  0.14597470  0.18316437  0.43733778     1.37470
O98         O  0.14684619  0.20400350  0.38197019    -0.56560
O99         O  0.21023686  0.18780404  0.45865119    -0.55370
C100        C  0.07428607  0.18999561  0.46610018     0.78390
O101        O  0.16679446  0.18387159  0.49247614    -0.57740
O102        O  0.14967645  0.24745496  0.41565692    -0.56190
O103        O  0.12119632  0.12518030  0.41440426    -0.56180
O104        O  0.08797261  0.15840403  0.46023480    -0.55350
C105        C  0.43937321  0.25412102  0.34267267    -0.04210
C106        C  0.45653935  0.22111238  0.35227103    -0.31640
C107        C  0.45801394  0.21165124  0.38362640     0.37610
C108        C  0.44193473  0.23527902  0.40605600    -0.04570
C109        C  0.42346372  0.26757673  0.39648253    -0.31540
C110        C  0.42201475  0.27708405  0.36499391     0.37520
H111        H  0.97062596  0.20341459  0.33560808     0.17890
O112        O  0.97796718  0.18084106  0.39226836    -0.59040
H113        H  0.41065611  0.28577951  0.41347175     0.17900
O114        O  0.40361859  0.30881465  0.35631502    -0.59130
H115        H  0.42088782  0.32925955  0.36086122     0.44900
H116        H  0.96087748  0.15980110  0.38953160     0.44850
C117        C  0.48711682  0.25250697  0.15847289    -0.04210
C118        C  0.00486720  0.27578424  0.13701641    -0.31640
C119        C  0.00532781  0.26721841  0.10535360     0.37610
C120        C  0.48792848  0.23498105  0.09481679    -0.04570
C121        C  0.47174735  0.21087862  0.11638408    -0.31540
C122        C  0.47079221  0.21960743  0.14790803     0.37520
H123        H  0.01759021  0.30120190  0.14468571     0.17890
O124        O  0.02218935  0.29084416  0.08491082    -0.59040
H125        H  0.45789374  0.18610422  0.10860207     0.17900
O126        O  0.45198350  0.19680175  0.16782630    -0.59130
H127        H  0.42599692  0.20594046  0.16753389     0.44900
H128        H  0.04777333  0.28103489  0.08248572     0.44850
C129        C  0.20189279  0.47361863  0.46894463    -0.04210
C130        C  0.23902774  0.46867150  0.47746088    -0.31640
C131        C  0.24942082  0.46867200  0.00868383     0.37610
C132        C  0.22238293  0.47363383  0.03215054    -0.04570
C133        C  0.18498480  0.47598691  0.02367407    -0.31540
C134        C  0.17459397  0.47585134  0.49245793     0.37520
H135        H  0.26040178  0.46628295  0.45984181     0.17890
O136        O  0.28624705  0.46497059  0.01581600    -0.59040
H137        H  0.16368913  0.47956531  0.04122464     0.17900
O138        O  0.13787843  0.98050611  0.48533013    -0.59130
H139        H  0.12759730  0.95516443  0.98502958     0.44900
H140        H  0.29671968  0.49006040  0.51319436     0.44850
C141        C  0.22780263  0.02769273  0.21910098    -0.04210
C142        C  0.19124133  0.03574770  0.22799892    -0.31640
C143        C  0.18094525  0.03605668  0.25932485     0.37610
C144        C  0.20749305  0.02819262  0.28247930    -0.04570
C145        C  0.24450503  0.52242207  0.27362331    -0.31540
C146        C  0.25480276  0.52221397  0.24232309     0.37520
H147        H  0.17018322  0.04059952  0.21058151     0.17890
O148        O  0.14465775  0.04323062  0.26688498    -0.59040
H149        H  0.26540879  0.51636248  0.29091336     0.17900
O150        O  0.29085209  0.51391214  0.23477213    -0.59130
H151        H  0.30388790  0.53792514  0.23527396     0.44900
H152        H  0.13165176  0.01948615  0.26372700     0.44850
O153        O  0.29776308  0.05097439  0.60854685    -0.56560
C154        C  0.27051267  0.42916013  0.64599404     0.76070
O155        O  0.21129762  0.01633383  0.66590994    -0.57720
C156        C  0.27096316  0.07333429  0.60294411     0.76040
C157        C  0.23291425  0.48038923  0.56481213     0.78430
Cd158      Cd  0.25512584  0.50145801  0.62474599     1.37460
O159        O  0.29748453  0.45027981  0.63899562    -0.56560
O160        O  0.26667443  0.48039871  0.57296299    -0.55370
C161        C  0.23663676  0.02163041  0.68594997     0.78390
O162        O  0.20881087  0.48827154  0.58558879    -0.57740
O163        O  0.23789806  0.44142835  0.64170982    -0.56190
O164        O  0.23838782  0.06242747  0.60872969    -0.56180
O165        O  0.26998426  0.01985503  0.67653679    -0.55350
O166        O  0.27993855  0.29926595  0.63193137    -0.56560
C167        C  0.27571177  0.39219797  0.65932965     0.76070
O168        O  0.26126675  0.31959195  0.74244844    -0.57720
C169        C  0.27970808  0.26494334  0.63738101     0.76040
C170        C  0.35446879  0.31362105  0.71534153     0.78430
Cd171      Cd  0.28253449  0.32014596  0.68720449     1.37470
O172        O  0.24806081  0.37343792  0.66781429    -0.56560
O173        O  0.34100030  0.34525368  0.70932704    -0.55370
C174        C  0.22707864  0.31718310  0.73698163     0.78390
O175        O  0.33486462  0.28599137  0.70849422    -0.57740
O176        O  0.30733951  0.37775062  0.66350484    -0.56190
O177        O  0.27998525  0.25572297  0.66569369    -0.56180
O178        O  0.21814259  0.31528578  0.70868282    -0.55350
O179        O  0.01240899  0.33486648  0.76543746    -0.56560
C180        C  0.39125642  0.30817467  0.72888876     0.76070
O181        O  0.47357585  0.24241813  0.71247329    -0.57720
C182        C  0.03510443  0.30844957  0.77133395     0.76040
C183        C  0.44408399  0.26603980  0.81018521     0.78430
Cd184      Cd  0.46323394  0.29077142  0.75037942     1.37460
O185        O  0.41341041  0.33467555  0.73453874    -0.56560
O186        O  0.44119607  0.29991368  0.80261834    -0.55370
C187        C  0.48213463  0.26482430  0.69083827     0.78390
O188        O  0.45351377  0.24320360  0.78900383    -0.57740
O189        O  0.40233026  0.27555071  0.73472704    -0.56190
O190        O  0.02456653  0.27574213  0.76603059    -0.56180
O191        O  0.48453190  0.29885148  0.69785931    -0.55350
O192        O  0.17870231  0.37297073  0.83250889    -0.56560
C193        C  0.14785977  0.26594852  0.86212922     0.76070
O194        O  0.09211494  0.28657955  0.79167595    -0.57720
C195        C  0.15116944  0.39309731  0.83981912     0.76040
C196        C  0.19927369  0.31740852  0.76217328     0.78430
Cd197      Cd  0.14404105  0.32103480  0.81215089     1.37460
O198        O  0.14451760  0.30015978  0.86751708    -0.56560
O199        O  0.20830478  0.31567464  0.79046261    -0.55370
C200        C  0.07193223  0.31410178  0.78456019     0.78390
O201        O  0.16503572  0.32007050  0.75675331    -0.57740
O202        O  0.15007024  0.25683333  0.83384719    -0.56190
O203        O  0.11944325  0.38011639  0.83446710    -0.56180
O204        O  0.08489008  0.34582286  0.79001527    -0.55350
O205        O  0.41425472  0.16790201  0.51492971    -0.56560
C206        C  0.03742253  0.19500322  0.97976282     0.76070
O207        O  0.44981861  0.25312446  0.95930609    -0.57720
C208        C  0.39225053  0.19496817  0.52075195     0.76040
C209        C  0.48338084  0.22709898  0.56159788     0.78430
Cd210      Cd  0.46482193  0.20958686  0.50049053     1.37470
O211        O  0.01603681  0.16788525  0.98566475    -0.56560
O212        O  0.48090982  0.19382059  0.55229999    -0.55370
C213        C  0.44660189  0.22729965  0.93928762     0.78390
O214        O  0.47958888  0.25290246  0.54154973    -0.57740
O215        O  0.02543059  0.22750786  0.98528690    -0.56190
O216        O  0.40368468  0.22751456  0.51549037    -0.56180
O217        O  0.44914842  0.19403364  0.94873693    -0.55350
O218        O  0.28445433  0.20321374  0.61739421    -0.56560
C219        C  0.27627988  0.11023723  0.58961819     0.76070
O220        O  0.26286681  0.18340888  0.50672623    -0.57720
C221        C  0.27989216  0.23733007  0.61214119     0.76040
C222        C  0.35528003  0.18980386  0.53400464     0.78430
Cd223      Cd  0.28333647  0.18250468  0.56205526     1.37460
O224        O  0.24868170  0.13054076  0.58297974    -0.56560
O225        O  0.34216778  0.15813537  0.53951491    -0.55370
C226        C  0.22857870  0.18594415  0.51215869     0.78390
O227        O  0.33524678  0.21742903  0.54123009    -0.57740
O228        O  0.30793525  0.12315585  0.58367554    -0.56190
O229        O  0.27617676  0.24642456  0.58396739    -0.56140
O230        O  0.21926481  0.18763587  0.54045182    -0.55350
O231        O  0.13102127  0.05265655  0.88981453    -0.56560
C232        C  0.15670805  0.42985170  0.85325810     0.76070
O233        O  0.22024817  0.01369232  0.83600700    -0.57720
C234        C  0.15799025  0.07381705  0.89651297     0.76040
C235        C  0.19260230  0.48020976  0.93598313     0.78430
Cd236      Cd  0.17335823  0.00137499  0.87520734     1.37470
O237        O  0.13008858  0.45234734  0.85922850    -0.56560
O238        O  0.15915880  0.48192255  0.92704731    -0.55370
C239        C  0.19650918  0.02187354  0.81517341     0.78390
O240        O  0.21763967  0.48618174  0.91565965    -0.57740
O241        O  0.18937675  0.44047869  0.85876982    -0.56190
O242        O  0.19057335  0.06150773  0.89200484    -0.56180
O243        O  0.16266898  0.02249779  0.82330033    -0.55350
O244        O  0.18049925  0.12989943  0.91753099    -0.56560
C245        C  0.14836657  0.23828665  0.88736781     0.76070
O246        O  0.09361356  0.21772350  0.95883834    -0.57720
C247        C  0.15282404  0.11088216  0.90971022     0.76040
C248        C  0.20103199  0.18610713  0.98696895     0.78430
Cd249      Cd  0.14597470  0.18316436  0.93733778     1.37470
O250        O  0.14684625  0.20400349  0.88197018    -0.56560
O251        O  0.21023686  0.18780407  0.95865118    -0.55370
C252        C  0.07428607  0.18999560  0.96610019     0.78390
O253        O  0.16679447  0.18387155  0.99247614    -0.57740
O254        O  0.14967639  0.24745495  0.91565692    -0.56190
O255        O  0.12119632  0.12518029  0.91440425    -0.56180
O256        O  0.08797260  0.15840402  0.96023479    -0.55350
C257        C  0.43937325  0.25412099  0.84267267    -0.04210
C258        C  0.45653954  0.22111243  0.85227105    -0.31640
C259        C  0.45801414  0.21165131  0.88362642     0.37610
C260        C  0.44193480  0.23527902  0.90605600    -0.04570
C261        C  0.42346365  0.26757665  0.89648252    -0.31540
C262        C  0.42201467  0.27708395  0.86499390     0.37520
H263        H  0.97062633  0.20341475  0.83560812     0.17890
O264        O  0.97796761  0.18084128  0.89226842    -0.59040
H265        H  0.41065595  0.28577938  0.91347173     0.17900
O266        O  0.40361837  0.30881446  0.85631498    -0.59130
H267        H  0.42088750  0.32925944  0.86086119     0.44900
H268        H  0.96087805  0.15980121  0.88953163     0.44850
C269        C  0.48711679  0.25250697  0.65847288    -0.04210
C270        C  0.00486716  0.27578426  0.63701640    -0.31640
C271        C  0.00532777  0.26721842  0.60535359     0.37610
C272        C  0.48792845  0.23498105  0.59481678    -0.04570
C273        C  0.47174733  0.21087862  0.61638407    -0.31540
C274        C  0.47079219  0.21960743  0.64790802     0.37520
H275        H  0.01759017  0.30120192  0.64468570     0.17890
O276        O  0.02218931  0.29084418  0.58491081    -0.59040
H277        H  0.45789373  0.18610422  0.60860206     0.17900
O278        O  0.45198348  0.19680174  0.66782629    -0.59130
H279        H  0.42599690  0.20594045  0.66753388     0.44900
H280        H  0.04777330  0.28103491  0.58248572     0.44850
C281        C  0.20189281  0.47361862  0.96894463    -0.04210
C282        C  0.23902775  0.46867150  0.97746088    -0.31640
C283        C  0.24942081  0.46867200  0.50868383     0.37610
C284        C  0.22238292  0.47363383  0.53215054    -0.04570
C285        C  0.18498479  0.47598693  0.52367407    -0.31540
C286        C  0.17459398  0.47585132  0.99245793     0.37520
H287        H  0.26040179  0.46628295  0.95984181     0.17890
O288        O  0.28624705  0.46497058  0.51581600    -0.59040
H289        H  0.16368913  0.47956532  0.54122464     0.17900
O290        O  0.13787842  0.98050616  0.98533014    -0.59130
H291        H  0.12759734  0.95516436  0.48502956     0.44900
H292        H  0.29671968  0.49006041  0.01319436     0.44850
C293        C  0.22780262  0.02769272  0.71910098    -0.04210
C294        C  0.19124132  0.03574769  0.72799892    -0.31640
C295        C  0.18094523  0.03605667  0.75932485     0.37610
C296        C  0.20749304  0.02819261  0.78247930    -0.04570
C297        C  0.24450506  0.52242205  0.77362331    -0.31540
C298        C  0.25480278  0.52221395  0.74232309     0.37520
H299        H  0.17018321  0.04059951  0.71058151     0.17890
O300        O  0.14465774  0.04323061  0.76688498    -0.59040
H301        H  0.26540882  0.51636245  0.79091335     0.17900
O302        O  0.29085210  0.51391211  0.73477213    -0.59130
H303        H  0.30388793  0.53792510  0.73527396     0.44900
H304        H  0.13165174  0.01948614  0.76372701     0.44850
O305        O  0.29776309  0.55097439  0.10854685    -0.56560
C306        C  0.27051267  0.92916014  0.14599405     0.76070
O307        O  0.21129762  0.51633383  0.16590994    -0.57720
C308        C  0.27096317  0.57333429  0.10294411     0.76040
C309        C  0.23291424  0.98038922  0.06481213     0.78430
Cd310      Cd  0.25512583  0.00145801  0.12474599     1.37460
O311        O  0.29748453  0.95027982  0.13899563    -0.56560
O312        O  0.26667442  0.98039871  0.07296299    -0.55370
C313        C  0.23663677  0.52163041  0.18594997     0.78390
O314        O  0.20881086  0.98827154  0.08558880    -0.57740
O315        O  0.23789806  0.94142834  0.14170982    -0.56190
O316        O  0.23838783  0.56242748  0.10872968    -0.56180
O317        O  0.26998426  0.51985503  0.17653679    -0.55350
O318        O  0.27993858  0.79926596  0.13193137    -0.56560
C319        C  0.27571177  0.89219797  0.15932965     0.76070
O320        O  0.26126677  0.81959194  0.24244844    -0.57720
C321        C  0.27970809  0.76494334  0.13738101     0.76040
C322        C  0.35446881  0.81362105  0.21534153     0.78430
Cd323      Cd  0.28253451  0.82014596  0.18720449     1.37470
O324        O  0.24806082  0.87343792  0.16781429    -0.56560
O325        O  0.34100031  0.84525369  0.20932705    -0.55370
C326        C  0.22707865  0.81718311  0.23698163     0.78390
O327        O  0.33486463  0.78599137  0.20849422    -0.57740
O328        O  0.30733952  0.87775062  0.16350484    -0.56190
O329        O  0.27998524  0.75572297  0.16569369    -0.56180
O330        O  0.21814260  0.81528581  0.20868282    -0.55350
O331        O  0.01240900  0.83486649  0.26543746    -0.56560
C332        C  0.39125643  0.80817467  0.22888876     0.76070
O333        O  0.47357587  0.74241812  0.21247329    -0.57720
C334        C  0.03510444  0.80844958  0.27133395     0.76040
C335        C  0.44408399  0.76603979  0.31018521     0.78430
Cd336      Cd  0.46323395  0.79077141  0.25037942     1.37460
O337        O  0.41341042  0.83467555  0.23453875    -0.56560
O338        O  0.44119608  0.79991368  0.30261834    -0.55370
C339        C  0.48213464  0.76482429  0.19083828     0.78390
O340        O  0.45351377  0.74320359  0.28900383    -0.57740
O341        O  0.40233028  0.77555071  0.23472704    -0.56190
O342        O  0.02456654  0.77574214  0.26603059    -0.56180
O343        O  0.48453192  0.79885147  0.19785931    -0.55350
O344        O  0.17870231  0.87297075  0.33250889    -0.56560
C345        C  0.14785978  0.76594854  0.36212922     0.76070
O346        O  0.09211496  0.78657956  0.29167595    -0.57720
C347        C  0.15116944  0.89309733  0.33981912     0.76040
C348        C  0.19927371  0.81740852  0.26217328     0.78430
Cd349      Cd  0.14404106  0.82103481  0.31215089     1.37460
O350        O  0.14451764  0.80015980  0.36751708    -0.56560
O351        O  0.20830479  0.81567462  0.29046261    -0.55370
C352        C  0.07193224  0.81410179  0.28456019     0.78390
O353        O  0.16503574  0.82007053  0.25675331    -0.57740
O354        O  0.15007022  0.75683334  0.33384719    -0.56190
O355        O  0.11944325  0.88011639  0.33446711    -0.56180
O356        O  0.08489009  0.84582287  0.29001527    -0.55350
O357        O  0.41425473  0.66790200  0.01492972    -0.56560
C358        C  0.03742253  0.69500322  0.47976281     0.76070
O359        O  0.44981861  0.75312444  0.45930608    -0.57720
C360        C  0.39225055  0.69496816  0.02075195     0.76040
C361        C  0.48338086  0.72709897  0.06159789     0.78430
Cd362      Cd  0.46482195  0.70958684  0.00049054     1.37470
O363        O  0.01603681  0.66788525  0.48566474    -0.56560
O364        O  0.48090984  0.69382058  0.05230000    -0.55370
C365        C  0.44660188  0.72729962  0.43928761     0.78390
O366        O  0.47958890  0.75290245  0.04154974    -0.57740
O367        O  0.02543058  0.72750787  0.48528688    -0.56190
O368        O  0.40368470  0.72751455  0.01549037    -0.56180
O369        O  0.44914840  0.69403362  0.44873693    -0.55350
O370        O  0.28445432  0.70321374  0.11739421    -0.56560
C371        C  0.27627989  0.61023723  0.08961819     0.76070
O372        O  0.26286682  0.68340889  0.00672623    -0.57720
C373        C  0.27989217  0.73733007  0.11214119     0.76040
C374        C  0.35528004  0.68980386  0.03400465     0.78430
Cd375      Cd  0.28333649  0.68250469  0.06205526     1.37460
O376        O  0.24868171  0.63054076  0.08297974    -0.56560
O377        O  0.34216779  0.65813536  0.03951492    -0.55370
C378        C  0.22857872  0.68594415  0.01215869     0.78390
O379        O  0.33524679  0.71742902  0.04123009    -0.57740
O380        O  0.30793526  0.62315586  0.08367555    -0.56190
O381        O  0.27617679  0.74642457  0.08396739    -0.56140
O382        O  0.21926482  0.68763586  0.04045182    -0.55350
O383        O  0.13102127  0.55265657  0.38981453    -0.56560
C384        C  0.15670805  0.92985171  0.35325810     0.76070
O385        O  0.22024817  0.51369233  0.33600699    -0.57720
C386        C  0.15799025  0.57381706  0.39651297     0.76040
C387        C  0.19260229  0.98020977  0.43598313     0.78430
Cd388      Cd  0.17335823  0.50137501  0.37520734     1.37470
O389        O  0.13008858  0.95234734  0.35922851    -0.56560
O390        O  0.15915879  0.98192256  0.42704731    -0.55370
C391        C  0.19650918  0.52187355  0.31517340     0.78390
O392        O  0.21763966  0.98618175  0.41565965    -0.57740
O393        O  0.18937675  0.94047870  0.35876982    -0.56190
O394        O  0.19057335  0.56150775  0.39200483    -0.56180
O395        O  0.16266898  0.52249780  0.32330033    -0.55350
O396        O  0.18049925  0.62989945  0.41753098    -0.56560
C397        C  0.14836657  0.73828666  0.38736781     0.76070
O398        O  0.09361355  0.71772351  0.45883833    -0.57720
C399        C  0.15282404  0.61088217  0.40971021     0.76040
C400        C  0.20103199  0.68610713  0.48696895     0.78430
Cd401      Cd  0.14597470  0.68316438  0.43733778     1.37470
O402        O  0.14684622  0.70400350  0.38197018    -0.56560
O403        O  0.21023686  0.68780406  0.45865118    -0.55370
C404        C  0.07428607  0.68999561  0.46610018     0.78390
O405        O  0.16679447  0.68387158  0.49247614    -0.57740
O406        O  0.14967642  0.74745497  0.41565692    -0.56190
O407        O  0.12119632  0.62518030  0.41440426    -0.56180
O408        O  0.08797261  0.65840403  0.46023480    -0.55350
C409        C  0.43937324  0.75412098  0.34267267    -0.04210
C410        C  0.45653949  0.72111240  0.35227104    -0.31640
C411        C  0.45801409  0.71165127  0.38362641     0.37610
C412        C  0.44193478  0.73527900  0.40605600    -0.04570
C413        C  0.42346367  0.76757665  0.39648252    -0.31540
C414        C  0.42201470  0.77708396  0.36499390     0.37520
H415        H  0.97062616  0.70341468  0.33560810     0.17890
O416        O  0.97796741  0.68084117  0.39226839    -0.59040
H417        H  0.41065599  0.78577939  0.41347173     0.17900
O418        O  0.40361843  0.80881450  0.35631499    -0.59130
H419        H  0.42088759  0.82925945  0.36086120     0.44900
H420        H  0.96087778  0.65980116  0.38953161     0.44850
C421        C  0.48711681  0.75250696  0.15847289    -0.04210
C422        C  0.00486718  0.77578426  0.13701640    -0.31640
C423        C  0.00532779  0.76721842  0.10535359     0.37610
C424        C  0.48792847  0.73498103  0.09481678    -0.04570
C425        C  0.47174734  0.71087861  0.11638408    -0.31540
C426        C  0.47079220  0.71960742  0.14790803     0.37520
H427        H  0.01759019  0.80120191  0.14468570     0.17890
O428        O  0.02218934  0.79084417  0.08491081    -0.59040
H429        H  0.45789373  0.68610421  0.10860207     0.17900
O430        O  0.45198348  0.69680175  0.16782630    -0.59130
H431        H  0.42599690  0.70594046  0.16753388     0.44900
H432        H  0.04777332  0.78103489  0.08248572     0.44850
C433        C  0.20189280  0.97361863  0.46894463    -0.04210
C434        C  0.23902775  0.96867151  0.47746088    -0.31640
C435        C  0.24942079  0.96867197  0.00868383     0.37610
C436        C  0.22238291  0.97363382  0.03215054    -0.04570
C437        C  0.18498477  0.97598693  0.02367408    -0.31540
C438        C  0.17459397  0.97585132  0.49245793     0.37520
H439        H  0.26040179  0.96628297  0.45984181     0.17890
O440        O  0.28624703  0.96497053  0.01581601    -0.59040
H441        H  0.16368911  0.97956534  0.04122464     0.17900
O442        O  0.13787843  0.48050614  0.48533013    -0.59130
H443        H  0.12759734  0.45516437  0.98502957     0.44900
H444        H  0.29671967  0.99006043  0.51319437     0.44850
C445        C  0.22780261  0.52769273  0.21910098    -0.04210
C446        C  0.19124132  0.53574768  0.22799891    -0.31640
C447        C  0.18094523  0.53605666  0.25932485     0.37610
C448        C  0.20749304  0.52819261  0.28247930    -0.04570
C449        C  0.24450504  0.02242206  0.27362331    -0.31540
C450        C  0.25480277  0.02221396  0.24232309     0.37520
H451        H  0.17018321  0.54059950  0.21058150     0.17890
O452        O  0.14465773  0.54323059  0.26688497    -0.59040
H453        H  0.26540881  0.01636247  0.29091335     0.17900
O454        O  0.29085209  0.01391212  0.23477213    -0.59130
H455        H  0.30388792  0.03792512  0.23527396     0.44900
H456        H  0.13165175  0.51948612  0.26372700     0.44850
O457        O  0.29776310  0.55097440  0.60854684    -0.56560
C458        C  0.27051267  0.92916013  0.64599405     0.76070
O459        O  0.21129763  0.51633384  0.66590994    -0.57720
C460        C  0.27096317  0.57333429  0.60294411     0.76040
C461        C  0.23291425  0.98038923  0.56481213     0.78430
Cd462      Cd  0.25512583  0.00145801  0.62474600     1.37460
O463        O  0.29748453  0.95027982  0.63899563    -0.56560
O464        O  0.26667443  0.98039871  0.57296299    -0.55370
C465        C  0.23663678  0.52163041  0.68594997     0.78390
O466        O  0.20881086  0.98827153  0.58558880    -0.57740
O467        O  0.23789806  0.94142834  0.64170982    -0.56190
O468        O  0.23838783  0.56242748  0.60872968    -0.56180
O469        O  0.26998428  0.51985503  0.67653678    -0.55350
O470        O  0.27993859  0.79926596  0.63193137    -0.56560
C471        C  0.27571177  0.89219796  0.65932965     0.76070
O472        O  0.26126677  0.81959192  0.74244844    -0.57720
C473        C  0.27970809  0.76494334  0.63738101     0.76040
C474        C  0.35446880  0.81362103  0.71534153     0.78430
Cd475      Cd  0.28253450  0.82014595  0.68720450     1.37470
O476        O  0.24806081  0.87343791  0.66781429    -0.56560
O477        O  0.34100031  0.84525367  0.70932705    -0.55370
C478        C  0.22707865  0.81718310  0.73698163     0.78390
O479        O  0.33486463  0.78599136  0.70849422    -0.57740
O480        O  0.30733952  0.87775062  0.66350485    -0.56190
O481        O  0.27998523  0.75572296  0.66569369    -0.56180
O482        O  0.21814260  0.81528580  0.70868282    -0.55350
O483        O  0.01240900  0.83486646  0.76543747    -0.56560
C484        C  0.39125643  0.80817465  0.72888875     0.76070
O485        O  0.47357587  0.74241810  0.71247329    -0.57720
C486        C  0.03510444  0.80844956  0.77133396     0.76040
C487        C  0.44408399  0.76603977  0.81018521     0.78430
Cd488      Cd  0.46323395  0.79077139  0.75037942     1.37460
O489        O  0.41341042  0.83467553  0.73453875    -0.56560
O490        O  0.44119608  0.79991365  0.80261834    -0.55370
C491        C  0.48213465  0.76482427  0.69083828     0.78390
O492        O  0.45351377  0.74320357  0.78900383    -0.57740
O493        O  0.40233027  0.77555069  0.73472703    -0.56190
O494        O  0.02456653  0.77574211  0.76603060    -0.56180
O495        O  0.48453192  0.79885145  0.69785932    -0.55350
O496        O  0.17870231  0.87297074  0.83250889    -0.56560
C497        C  0.14785978  0.76594852  0.86212923     0.76070
O498        O  0.09211495  0.78657954  0.79167595    -0.57720
C499        C  0.15116943  0.89309731  0.83981912     0.76040
C500        C  0.19927370  0.81740851  0.76217328     0.78430
Cd501      Cd  0.14404106  0.82103480  0.81215089     1.37460
O502        O  0.14451765  0.80015978  0.86751708    -0.56560
O503        O  0.20830479  0.81567461  0.79046262    -0.55370
C504        C  0.07193223  0.81410177  0.78456019     0.78390
O505        O  0.16503573  0.82007052  0.75675331    -0.57740
O506        O  0.15007021  0.75683332  0.83384719    -0.56190
O507        O  0.11944325  0.88011637  0.83446711    -0.56180
O508        O  0.08489008  0.84582285  0.79001528    -0.55350
O509        O  0.41425473  0.66790200  0.51492971    -0.56560
C510        C  0.03742254  0.69500321  0.97976281     0.76070
O511        O  0.44981861  0.75312443  0.95930608    -0.57720
C512        C  0.39225054  0.69496816  0.52075195     0.76040
C513        C  0.48338086  0.72709896  0.56159788     0.78430
Cd514      Cd  0.46482194  0.70958684  0.50049054     1.37470
O515        O  0.01603682  0.66788524  0.98566475    -0.56560
O516        O  0.48090984  0.69382057  0.55229999    -0.55370
C517        C  0.44660189  0.72729962  0.93928761     0.78390
O518        O  0.47958890  0.75290244  0.54154974    -0.57740
O519        O  0.02543059  0.72750785  0.98528688    -0.56190
O520        O  0.40368469  0.72751455  0.51549037    -0.56180
O521        O  0.44914841  0.69403361  0.94873693    -0.55350
O522        O  0.28445430  0.70321374  0.61739421    -0.56560
C523        C  0.27627989  0.61023723  0.58961819     0.76070
O524        O  0.26286682  0.68340890  0.50672623    -0.57720
C525        C  0.27989216  0.73733007  0.61214118     0.76040
C526        C  0.35528004  0.68980386  0.53400464     0.78430
Cd527      Cd  0.28333648  0.68250469  0.56205525     1.37460
O528        O  0.24868171  0.63054076  0.58297973    -0.56560
O529        O  0.34216778  0.65813537  0.53951491    -0.55370
C530        C  0.22857871  0.68594415  0.51215869     0.78390
O531        O  0.33524679  0.71742903  0.54123009    -0.57740
O532        O  0.30793526  0.62315586  0.58367554    -0.56190
O533        O  0.27617679  0.74642457  0.58396739    -0.56140
O534        O  0.21926482  0.68763587  0.54045182    -0.55350
O535        O  0.13102128  0.55265655  0.88981453    -0.56560
C536        C  0.15670804  0.92985170  0.85325810     0.76070
O537        O  0.22024819  0.51369232  0.83600699    -0.57720
C538        C  0.15799027  0.57381705  0.89651297     0.76040
C539        C  0.19260227  0.98020976  0.93598313     0.78430
Cd540      Cd  0.17335825  0.50137500  0.87520734     1.37470
O541        O  0.13008857  0.95234733  0.85922851    -0.56560
O542        O  0.15915877  0.98192255  0.92704731    -0.55370
C543        C  0.19650920  0.52187354  0.81517340     0.78390
O544        O  0.21763964  0.98618174  0.91565966    -0.57740
O545        O  0.18937674  0.94047869  0.85876982    -0.56190
O546        O  0.19057336  0.56150774  0.89200483    -0.56180
O547        O  0.16266900  0.52249779  0.82330033    -0.55350
O548        O  0.18049926  0.62989944  0.91753098    -0.56560
C549        C  0.14836658  0.73828664  0.88736781     0.76070
O550        O  0.09361355  0.71772349  0.95883833    -0.57720
C551        C  0.15282406  0.61088216  0.90971022     0.76040
C552        C  0.20103200  0.68610712  0.98696896     0.78430
Cd553      Cd  0.14597471  0.68316436  0.93733778     1.37470
O554        O  0.14684622  0.70400349  0.88197019    -0.56560
O555        O  0.21023687  0.68780404  0.95865119    -0.55370
C556        C  0.07428608  0.68999560  0.96610019     0.78390
O557        O  0.16679448  0.68387157  0.99247614    -0.57740
O558        O  0.14967643  0.74745495  0.91565692    -0.56190
O559        O  0.12119633  0.62518029  0.91440426    -0.56180
O560        O  0.08797262  0.65840401  0.96023481    -0.55350
C561        C  0.43937324  0.75412096  0.84267267    -0.04210
C562        C  0.45653950  0.72111238  0.85227105    -0.31640
C563        C  0.45801410  0.71165126  0.88362641     0.37610
C564        C  0.44193478  0.73527898  0.90605600    -0.04570
C565        C  0.42346367  0.76757663  0.89648252    -0.31540
C566        C  0.42201469  0.77708393  0.86499390     0.37520
H567        H  0.97062608  0.70341462  0.83560809     0.17890
O568        O  0.97796732  0.68084110  0.89226838    -0.59040
H569        H  0.41065598  0.78577937  0.91347173     0.17900
O570        O  0.40361842  0.80881446  0.85631498    -0.59130
H571        H  0.42088757  0.82925943  0.86086119     0.44900
H572        H  0.96087766  0.65980111  0.88953161     0.44850
C573        C  0.48711683  0.75250694  0.65847289    -0.04210
C574        C  0.00486716  0.77578426  0.63701640    -0.31640
C575        C  0.00532777  0.76721843  0.60535359     0.37610
C576        C  0.48792849  0.73498102  0.59481678    -0.04570
C577        C  0.47174740  0.71087857  0.61638408    -0.31540
C578        C  0.47079226  0.71960737  0.64790803     0.37520
H579        H  0.01759015  0.80120193  0.64468570     0.17890
O580        O  0.02218928  0.79084421  0.58491081    -0.59040
H581        H  0.45789382  0.68610415  0.60860207     0.17900
O582        O  0.45198358  0.69680167  0.66782630    -0.59130
H583        H  0.42599699  0.70594034  0.66753389     0.44900
H584        H  0.04777327  0.78103496  0.58248571     0.44850
C585        C  0.20189278  0.97361862  0.96894464    -0.04210
C586        C  0.23902772  0.96867147  0.97746088    -0.31640
C587        C  0.24942082  0.96867201  0.50868383     0.37610
C588        C  0.22238292  0.97363383  0.53215054    -0.04570
C589        C  0.18498479  0.97598691  0.52367407    -0.31540
C590        C  0.17459395  0.97585134  0.99245793     0.37520
H591        H  0.26040176  0.96628290  0.95984181     0.17890
O592        O  0.28624705  0.96497060  0.51581600    -0.59040
H593        H  0.16368913  0.97956530  0.54122464     0.17900
O594        O  0.13787844  0.48050612  0.98533013    -0.59130
H595        H  0.12759733  0.45516440  0.48502957     0.44900
H596        H  0.29671967  0.99006035  0.01319436     0.44850
C597        C  0.22780264  0.52769273  0.71910098    -0.04210
C598        C  0.19124135  0.53574770  0.72799892    -0.31640
C599        C  0.18094526  0.53605668  0.75932485     0.37610
C600        C  0.20749307  0.52819261  0.78247930    -0.04570
C601        C  0.24450503  0.02242205  0.77362331    -0.31540
C602        C  0.25480276  0.02221395  0.74232309     0.37520
H603        H  0.17018324  0.54059953  0.71058151     0.17890
O604        O  0.14465776  0.54323062  0.76688498    -0.59040
H605        H  0.26540879  0.01636246  0.79091336     0.17900
O606        O  0.29085208  0.01391211  0.73477213    -0.59130
H607        H  0.30388791  0.03792511  0.73527397     0.44900
H608        H  0.13165177  0.51948615  0.76372700     0.44850
O609        O  0.79776309  0.05097439  0.10854684    -0.56560
C610        C  0.77051266  0.42916014  0.14599404     0.76070
O611        O  0.71129762  0.01633384  0.16590994    -0.57720
C612        C  0.77096317  0.07333429  0.10294411     0.76040
C613        C  0.73291423  0.48038923  0.06481213     0.78430
Cd614      Cd  0.75512582  0.50145801  0.12474599     1.37460
O615        O  0.79748452  0.45027982  0.13899562    -0.56560
O616        O  0.76667441  0.48039871  0.07296299    -0.55370
C617        C  0.73663677  0.02163041  0.18594997     0.78390
O618        O  0.70881085  0.48827154  0.08558879    -0.57740
O619        O  0.73789805  0.44142834  0.14170981    -0.56190
O620        O  0.73838783  0.06242747  0.10872968    -0.56180
O621        O  0.76998427  0.01985503  0.17653679    -0.55350
O622        O  0.77993860  0.29926596  0.13193136    -0.56560
C623        C  0.77571177  0.39219797  0.15932964     0.76070
O624        O  0.76126678  0.31959190  0.24244843    -0.57720
C625        C  0.77970809  0.26494334  0.13738100     0.76040
C626        C  0.85446881  0.31362105  0.21534152     0.78430
Cd627      Cd  0.78253451  0.32014596  0.18720449     1.37470
O628        O  0.74806081  0.37343791  0.16781428    -0.56560
O629        O  0.84100031  0.34525368  0.20932704    -0.55370
C630        C  0.72707865  0.31718310  0.23698162     0.78390
O631        O  0.83486464  0.28599137  0.20849420    -0.57740
O632        O  0.80733952  0.37775063  0.16350484    -0.56190
O633        O  0.77998522  0.25572297  0.16569368    -0.56180
O634        O  0.71814260  0.31528584  0.20868281    -0.55350
O635        O  0.51240901  0.33486649  0.26543746    -0.56560
C636        C  0.89125644  0.30817467  0.22888874     0.76070
O637        O  0.97357588  0.24241812  0.21247329    -0.57720
C638        C  0.53510445  0.30844958  0.27133395     0.76040
C639        C  0.94408397  0.26603981  0.31018521     0.78430
Cd640      Cd  0.96323396  0.29077141  0.25037942     1.37460
O641        O  0.91341043  0.33467555  0.23453874    -0.56560
O642        O  0.94119609  0.29991370  0.30261833    -0.55370
C643        C  0.98213466  0.26482429  0.19083828     0.78390
O644        O  0.95351374  0.24320360  0.28900383    -0.57740
O645        O  0.90233028  0.27555071  0.23472703    -0.56190
O646        O  0.52456654  0.27574214  0.26603060    -0.56180
O647        O  0.98453193  0.29885147  0.19785931    -0.55350
O648        O  0.67870232  0.37297075  0.33250888    -0.56560
C649        C  0.64785978  0.26594853  0.36212922     0.76070
O650        O  0.59211496  0.28657955  0.29167595    -0.57720
C651        C  0.65116944  0.39309732  0.33981912     0.76040
C652        C  0.69927371  0.31740852  0.26217327     0.78430
Cd653      Cd  0.64404107  0.32103481  0.31215089     1.37460
O654        O  0.64451768  0.30015980  0.36751708    -0.56560
O655        O  0.70830480  0.31567458  0.29046261    -0.55370
C656        C  0.57193224  0.31410179  0.28456019     0.78390
O657        O  0.66503574  0.32007056  0.25675331    -0.57740
O658        O  0.65007018  0.25683333  0.33384718    -0.56190
O659        O  0.61944326  0.38011638  0.33446711    -0.56180
O660        O  0.58489009  0.34582287  0.29001527    -0.55350
O661        O  0.91425473  0.16790201  0.01492971    -0.56560
C662        C  0.53742252  0.19500323  0.47976281     0.76070
O663        O  0.94981859  0.25312444  0.45930607    -0.57720
C664        C  0.89225054  0.19496817  0.02075194     0.76040
C665        C  0.98338086  0.22709897  0.06159789     0.78430
Cd666      Cd  0.96482195  0.20958685  0.00049054     1.37470
O667        O  0.51603681  0.16788525  0.48566474    -0.56560
O668        O  0.98090984  0.19382058  0.05230000    -0.55370
C669        C  0.94660185  0.22729963  0.43928761     0.78390
O670        O  0.97958890  0.25290245  0.04154974    -0.57740
O671        O  0.52543057  0.22750787  0.48528688    -0.56190
O672        O  0.90368469  0.22751456  0.01549036    -0.56180
O673        O  0.94914837  0.19403362  0.44873692    -0.55350
O674        O  0.78445430  0.20321373  0.11739421    -0.56560
C675        C  0.77627989  0.11023723  0.08961818     0.76070
O676        O  0.76286681  0.18340888  0.00672622    -0.57720
C677        C  0.77989216  0.23733007  0.11214118     0.76040
C678        C  0.85528004  0.18980386  0.03400464     0.78430
Cd679      Cd  0.78333648  0.18250468  0.06205525     1.37460
O680        O  0.74868171  0.13054076  0.08297973    -0.56560
O681        O  0.84216779  0.15813537  0.03951491    -0.55370
C682        C  0.72857871  0.18594415  0.01215868     0.78390
O683        O  0.83524678  0.21742902  0.04123008    -0.57740
O684        O  0.80793526  0.12315586  0.08367554    -0.56190
O685        O  0.77617680  0.24642457  0.08396738    -0.56140
O686        O  0.71926482  0.18763587  0.04045182    -0.55350
O687        O  0.63102127  0.05265656  0.38981453    -0.56560
C688        C  0.65670805  0.42985171  0.35325810     0.76070
O689        O  0.72024817  0.01369233  0.33600699    -0.57720
C690        C  0.65799025  0.07381706  0.39651297     0.76040
C691        C  0.69260229  0.48020977  0.43598313     0.78430
Cd692      Cd  0.67335823  0.00137501  0.37520734     1.37470
O693        O  0.63008858  0.45234733  0.35922851    -0.56560
O694        O  0.65915879  0.48192256  0.42704731    -0.55370
C695        C  0.69650918  0.02187354  0.31517340     0.78390
O696        O  0.71763966  0.48618175  0.41565965    -0.57740
O697        O  0.68937675  0.44047870  0.35876982    -0.56190
O698        O  0.69057335  0.06150775  0.39200483    -0.56180
O699        O  0.66266898  0.02249780  0.32330033    -0.55350
O700        O  0.68049925  0.12989945  0.41753098    -0.56560
C701        C  0.64836657  0.23828665  0.38736781     0.76070
O702        O  0.59361354  0.21772351  0.45883832    -0.57720
C703        C  0.65282404  0.11088217  0.40971021     0.76040
C704        C  0.70103198  0.18610713  0.48696895     0.78430
Cd705      Cd  0.64597470  0.18316437  0.43733778     1.37470
O706        O  0.64684618  0.20400350  0.38197018    -0.56560
O707        O  0.71023686  0.18780403  0.45865118    -0.55370
C708        C  0.57428606  0.18999561  0.46610018     0.78390
O709        O  0.66679446  0.18387159  0.49247614    -0.57740
O710        O  0.64967645  0.24745496  0.41565692    -0.56190
O711        O  0.62119631  0.12518030  0.41440426    -0.56180
O712        O  0.58797260  0.15840403  0.46023480    -0.55350
C713        C  0.93937320  0.25412100  0.34267267    -0.04210
C714        C  0.95653934  0.22111236  0.35227103    -0.31640
C715        C  0.95801393  0.21165122  0.38362639     0.37610
C716        C  0.94193472  0.23527900  0.40605599    -0.04570
C717        C  0.92346371  0.26757672  0.39648253    -0.31540
C718        C  0.92201475  0.27708403  0.36499391     0.37520
H719        H  0.47062597  0.20341461  0.33560808     0.17890
O720        O  0.47796719  0.18084107  0.39226837    -0.59040
H721        H  0.91065611  0.28577950  0.41347175     0.17900
O722        O  0.90361859  0.30881463  0.35631501    -0.59130
H723        H  0.92088782  0.32925953  0.36086122     0.44900
H724        H  0.46087749  0.15980111  0.38953160     0.44850
C725        C  0.98711683  0.25250695  0.15847289    -0.04210
C726        C  0.50486719  0.27578426  0.13701641    -0.31640
C727        C  0.50532780  0.26721842  0.10535360     0.37610
C728        C  0.98792849  0.23498103  0.09481679    -0.04570
C729        C  0.97174737  0.21087860  0.11638408    -0.31540
C730        C  0.97079223  0.21960741  0.14790803     0.37520
H731        H  0.51759021  0.30120191  0.14468571     0.17890
O732        O  0.52218935  0.29084417  0.08491082    -0.59040
H733        H  0.95789376  0.18610420  0.10860207     0.17900
O734        O  0.95198352  0.19680172  0.16782630    -0.59130
H735        H  0.92599694  0.20594043  0.16753389     0.44900
H736        H  0.54777333  0.28103490  0.08248572     0.44850
C737        C  0.70189280  0.47361863  0.46894463    -0.04210
C738        C  0.73902774  0.46867150  0.47746088    -0.31640
C739        C  0.74942079  0.46867199  0.00868383     0.37610
C740        C  0.72238290  0.47363383  0.03215054    -0.04570
C741        C  0.68498477  0.47598692  0.02367407    -0.31540
C742        C  0.67459397  0.47585133  0.49245793     0.37520
H743        H  0.76040179  0.46628295  0.45984181     0.17890
O744        O  0.78624703  0.46497057  0.01581600    -0.59040
H745        H  0.66368911  0.47956532  0.04122464     0.17900
O746        O  0.63787843  0.98050611  0.48533013    -0.59130
H747        H  0.62759731  0.95516443  0.98502958     0.44900
H748        H  0.79671968  0.49006041  0.51319436     0.44850
C749        C  0.72780262  0.02769273  0.21910098    -0.04210
C750        C  0.69124133  0.03574769  0.22799892    -0.31640
C751        C  0.68094524  0.03605667  0.25932485     0.37610
C752        C  0.70749305  0.02819261  0.28247930    -0.04570
C753        C  0.74450503  0.52242206  0.27362331    -0.31540
C754        C  0.75480275  0.52221396  0.24232308     0.37520
H755        H  0.67018322  0.04059952  0.21058151     0.17890
O756        O  0.64465774  0.04323062  0.26688497    -0.59040
H757        H  0.76540879  0.51636247  0.29091335     0.17900
O758        O  0.79085208  0.51391212  0.23477213    -0.59130
H759        H  0.80388790  0.53792512  0.23527396     0.44900
H760        H  0.63165175  0.01948614  0.26372700     0.44850
O761        O  0.79776309  0.05097439  0.60854684    -0.56560
C762        C  0.77051267  0.42916013  0.64599405     0.76070
O763        O  0.71129762  0.01633383  0.66590994    -0.57720
C764        C  0.77096316  0.07333429  0.60294411     0.76040
C765        C  0.73291426  0.48038923  0.56481213     0.78430
Cd766      Cd  0.75512584  0.50145801  0.62474599     1.37460
O767        O  0.79748453  0.45027981  0.63899563    -0.56560
O768        O  0.76667443  0.48039871  0.57296299    -0.55370
C769        C  0.73663677  0.02163041  0.68594997     0.78390
O770        O  0.70881087  0.48827154  0.58558879    -0.57740
O771        O  0.73789806  0.44142834  0.64170982    -0.56190
O772        O  0.73838782  0.06242747  0.60872968    -0.56180
O773        O  0.76998427  0.01985503  0.67653679    -0.55350
O774        O  0.77993857  0.29926595  0.63193137    -0.56560
C775        C  0.77571177  0.39219796  0.65932965     0.76070
O776        O  0.76126676  0.31959192  0.74244844    -0.57720
C777        C  0.77970808  0.26494334  0.63738101     0.76040
C778        C  0.85446879  0.31362104  0.71534153     0.78430
Cd779      Cd  0.78253450  0.32014595  0.68720449     1.37470
O780        O  0.74806081  0.37343792  0.66781429    -0.56560
O781        O  0.84100029  0.34525368  0.70932705    -0.55370
C782        C  0.72707864  0.31718310  0.73698163     0.78390
O783        O  0.83486462  0.28599136  0.70849422    -0.57740
O784        O  0.80733951  0.37775062  0.66350484    -0.56190
O785        O  0.77998523  0.25572296  0.66569368    -0.56180
O786        O  0.71814259  0.31528580  0.70868281    -0.55350
O787        O  0.51240899  0.33486648  0.76543746    -0.56560
C788        C  0.89125642  0.30817466  0.72888876     0.76070
O789        O  0.97357585  0.24241813  0.71247329    -0.57720
C790        C  0.53510443  0.30844957  0.77133395     0.76040
C791        C  0.94408399  0.26603979  0.81018521     0.78430
Cd792      Cd  0.96323394  0.29077141  0.75037942     1.37460
O793        O  0.91341041  0.33467555  0.73453875    -0.56560
O794        O  0.94119607  0.29991368  0.80261834    -0.55370
C795        C  0.98213463  0.26482430  0.69083827     0.78390
O796        O  0.95351378  0.24320359  0.78900383    -0.57740
O797        O  0.90233026  0.27555070  0.73472704    -0.56190
O798        O  0.52456652  0.27574213  0.76603059    -0.56180
O799        O  0.98453191  0.29885148  0.69785931    -0.55350
O800        O  0.67870230  0.37297074  0.83250888    -0.56560
C801        C  0.64785977  0.26594852  0.86212922     0.76070
O802        O  0.59211494  0.28657955  0.79167594    -0.57720
C803        C  0.65116943  0.39309731  0.83981912     0.76040
C804        C  0.69927369  0.31740851  0.76217327     0.78430
Cd805      Cd  0.64404105  0.32103480  0.81215089     1.37460
O806        O  0.64451764  0.30015979  0.86751708    -0.56560
O807        O  0.70830478  0.31567461  0.79046261    -0.55370
C808        C  0.57193223  0.31410178  0.78456019     0.78390
O809        O  0.66503573  0.32007053  0.75675331    -0.57740
O810        O  0.65007019  0.25683332  0.83384718    -0.56190
O811        O  0.61944324  0.38011638  0.83446711    -0.56180
O812        O  0.58489008  0.34582286  0.79001527    -0.55350
O813        O  0.91425472  0.16790201  0.51492971    -0.56560
C814        C  0.53742253  0.19500322  0.97976282     0.76070
O815        O  0.94981861  0.25312445  0.95930609    -0.57720
C816        C  0.89225053  0.19496817  0.52075195     0.76040
C817        C  0.98338083  0.22709898  0.56159788     0.78430
Cd818      Cd  0.96482193  0.20958685  0.50049053     1.37470
O819        O  0.51603681  0.16788525  0.98566475    -0.56560
O820        O  0.98090982  0.19382059  0.55229999    -0.55370
C821        C  0.94660190  0.22729964  0.93928761     0.78390
O822        O  0.97958888  0.25290246  0.54154973    -0.57740
O823        O  0.52543059  0.22750786  0.98528689    -0.56190
O824        O  0.90368468  0.22751456  0.51549036    -0.56180
O825        O  0.94914843  0.19403363  0.94873693    -0.55350
O826        O  0.78445430  0.20321373  0.61739421    -0.56560
C827        C  0.77627988  0.11023723  0.58961819     0.76070
O828        O  0.76286681  0.18340887  0.50672623    -0.57720
C829        C  0.77989215  0.23733007  0.61214118     0.76040
C830        C  0.85528003  0.18980386  0.53400464     0.78430
Cd831      Cd  0.78333647  0.18250469  0.56205525     1.37460
O832        O  0.74868170  0.13054076  0.58297973    -0.56560
O833        O  0.84216778  0.15813537  0.53951491    -0.55370
C834        C  0.72857870  0.18594415  0.51215869     0.78390
O835        O  0.83524677  0.21742903  0.54123009    -0.57740
O836        O  0.80793525  0.12315586  0.58367554    -0.56190
O837        O  0.77617677  0.24642456  0.58396739    -0.56140
O838        O  0.71926481  0.18763588  0.54045182    -0.55350
O839        O  0.63102127  0.05265655  0.88981453    -0.56560
C840        C  0.65670804  0.42985170  0.85325809     0.76070
O841        O  0.72024818  0.01369232  0.83600699    -0.57720
C842        C  0.65799026  0.07381705  0.89651297     0.76040
C843        C  0.69260227  0.48020976  0.93598313     0.78430
Cd844      Cd  0.67335824  0.00137500  0.87520734     1.37470
O845        O  0.63008857  0.45234733  0.85922850    -0.56560
O846        O  0.65915877  0.48192255  0.92704731    -0.55370
C847        C  0.69650919  0.02187354  0.81517341     0.78390
O848        O  0.71763964  0.48618174  0.91565965    -0.57740
O849        O  0.68937674  0.44047869  0.85876982    -0.56190
O850        O  0.69057335  0.06150774  0.89200483    -0.56180
O851        O  0.66266899  0.02249779  0.82330033    -0.55350
O852        O  0.68049925  0.12989944  0.91753098    -0.56560
C853        C  0.64836657  0.23828665  0.88736781     0.76070
O854        O  0.59361355  0.21772350  0.95883833    -0.57720
C855        C  0.65282404  0.11088216  0.90971021     0.76040
C856        C  0.70103199  0.18610713  0.98696895     0.78430
Cd857      Cd  0.64597470  0.18316436  0.93733778     1.37470
O858        O  0.64684620  0.20400349  0.88197018    -0.56560
O859        O  0.71023686  0.18780404  0.95865118    -0.55370
C860        C  0.57428607  0.18999561  0.96610019     0.78390
O861        O  0.66679447  0.18387157  0.99247614    -0.57740
O862        O  0.64967643  0.24745495  0.91565692    -0.56190
O863        O  0.62119632  0.12518029  0.91440426    -0.56180
O864        O  0.58797260  0.15840402  0.96023480    -0.55350
C865        C  0.93937326  0.25412098  0.84267267    -0.04210
C866        C  0.95653958  0.22111244  0.85227106    -0.31640
C867        C  0.95801419  0.21165132  0.88362642     0.37610
C868        C  0.94193481  0.23527902  0.90605600    -0.04570
C869        C  0.92346364  0.26757663  0.89648251    -0.31540
C870        C  0.92201466  0.27708393  0.86499389     0.37520
H871        H  0.47062627  0.20341473  0.83560811     0.17890
O872        O  0.47796754  0.18084125  0.89226841    -0.59040
H873        H  0.91065591  0.28577934  0.91347172     0.17900
O874        O  0.90361833  0.30881442  0.85631497    -0.59130
H875        H  0.92088744  0.32925942  0.86086118     0.44900
H876        H  0.46087795  0.15980120  0.88953162     0.44850
C877        C  0.98711679  0.25250697  0.65847288    -0.04210
C878        C  0.50486716  0.27578426  0.63701640    -0.31640
C879        C  0.50532777  0.26721843  0.60535359     0.37610
C880        C  0.98792845  0.23498105  0.59481678    -0.04570
C881        C  0.97174732  0.21087862  0.61638407    -0.31540
C882        C  0.97079218  0.21960743  0.64790802     0.37520
H883        H  0.51759017  0.30120192  0.64468570     0.17890
O884        O  0.52218931  0.29084418  0.58491081    -0.59040
H885        H  0.95789372  0.18610422  0.60860206     0.17900
O886        O  0.95198347  0.19680175  0.66782629    -0.59130
H887        H  0.92599690  0.20594046  0.66753388     0.44900
H888        H  0.54777329  0.28103492  0.58248572     0.44850
C889        C  0.70189278  0.47361862  0.96894463    -0.04210
C890        C  0.73902772  0.46867149  0.97746088    -0.31640
C891        C  0.74942082  0.46867200  0.50868383     0.37610
C892        C  0.72238293  0.47363383  0.53215054    -0.04570
C893        C  0.68498479  0.47598692  0.52367407    -0.31540
C894        C  0.67459395  0.47585133  0.99245793     0.37520
H895        H  0.76040177  0.46628293  0.95984181     0.17890
O896        O  0.78624705  0.46497058  0.51581600    -0.59040
H897        H  0.66368913  0.47956531  0.54122464     0.17900
O898        O  0.63787842  0.98050616  0.98533013    -0.59130
H899        H  0.62759734  0.95516437  0.48502957     0.44900
H900        H  0.79671966  0.49006039  0.01319436     0.44850
C901        C  0.72780262  0.02769273  0.71910098    -0.04210
C902        C  0.69124133  0.03574769  0.72799892    -0.31640
C903        C  0.68094524  0.03605667  0.75932485     0.37610
C904        C  0.70749305  0.02819261  0.78247930    -0.04570
C905        C  0.74450504  0.52242205  0.77362331    -0.31540
C906        C  0.75480277  0.52221395  0.74232309     0.37520
H907        H  0.67018322  0.04059951  0.71058151     0.17890
O908        O  0.64465774  0.04323060  0.76688498    -0.59040
H909        H  0.76540880  0.51636245  0.79091336     0.17900
O910        O  0.79085209  0.51391210  0.73477213    -0.59130
H911        H  0.80388792  0.53792510  0.73527397     0.44900
H912        H  0.63165176  0.01948613  0.76372700     0.44850
O913        O  0.79776308  0.55097439  0.10854684    -0.56560
C914        C  0.77051267  0.92916014  0.14599405     0.76070
O915        O  0.71129761  0.51633383  0.16590994    -0.57720
C916        C  0.77096316  0.57333428  0.10294411     0.76040
C917        C  0.73291425  0.98038923  0.06481213     0.78430
Cd918      Cd  0.75512583  0.00145801  0.12474599     1.37460
O919        O  0.79748453  0.95027982  0.13899562    -0.56560
O920        O  0.76667442  0.98039871  0.07296299    -0.55370
C921        C  0.73663675  0.52163041  0.18594996     0.78390
O922        O  0.70881086  0.98827154  0.08558880    -0.57740
O923        O  0.73789806  0.94142834  0.14170982    -0.56190
O924        O  0.73838782  0.56242748  0.10872968    -0.56180
O925        O  0.76998425  0.51985503  0.17653678    -0.55350
O926        O  0.77993856  0.79926596  0.13193137    -0.56560
C927        C  0.77571177  0.89219797  0.15932965     0.76070
O928        O  0.76126677  0.81959193  0.24244844    -0.57720
C929        C  0.77970809  0.76494334  0.13738101     0.76040
C930        C  0.85446880  0.81362105  0.21534153     0.78430
Cd931      Cd  0.78253450  0.82014596  0.18720449     1.37470
O932        O  0.74806081  0.87343792  0.16781429    -0.56560
O933        O  0.84100031  0.84525369  0.20932705    -0.55370
C934        C  0.72707865  0.81718310  0.23698163     0.78390
O935        O  0.83486463  0.78599137  0.20849422    -0.57740
O936        O  0.80733952  0.87775062  0.16350484    -0.56190
O937        O  0.77998526  0.75572297  0.16569369    -0.56180
O938        O  0.71814260  0.81528580  0.20868282    -0.55350
O939        O  0.51240900  0.83486648  0.26543746    -0.56560
C940        C  0.89125643  0.80817467  0.22888875     0.76070
O941        O  0.97357587  0.74241814  0.21247329    -0.57720
C942        C  0.53510444  0.80844957  0.27133396     0.76040
C943        C  0.94408399  0.76603980  0.31018521     0.78430
Cd944      Cd  0.96323395  0.79077142  0.25037942     1.37460
O945        O  0.91341042  0.83467556  0.23453874    -0.56560
O946        O  0.94119609  0.79991369  0.30261833    -0.55370
C947        C  0.98213464  0.76482430  0.19083827     0.78390
O948        O  0.95351377  0.74320360  0.28900382    -0.57740
O949        O  0.90233028  0.77555071  0.23472704    -0.56190
O950        O  0.52456654  0.77574213  0.26603059    -0.56180
O951        O  0.98453192  0.79885148  0.19785931    -0.55350
O952        O  0.67870231  0.87297075  0.33250889    -0.56560
C953        C  0.64785978  0.76594853  0.36212923     0.76070
O954        O  0.59211496  0.78657955  0.29167595    -0.57720
C955        C  0.65116944  0.89309732  0.33981912     0.76040
C956        C  0.69927370  0.81740852  0.26217328     0.78430
Cd957      Cd  0.64404106  0.82103481  0.31215089     1.37460
O958        O  0.64451765  0.80015980  0.36751708    -0.56560
O959        O  0.70830479  0.81567462  0.29046262    -0.55370
C960        C  0.57193224  0.81410178  0.28456019     0.78390
O961        O  0.66503574  0.82007053  0.25675331    -0.57740
O962        O  0.65007021  0.75683333  0.33384719    -0.56190
O963        O  0.61944325  0.88011639  0.33446711    -0.56180
O964        O  0.58489009  0.84582287  0.29001527    -0.55350
O965        O  0.91425473  0.66790199  0.01492972    -0.56560
C966        C  0.53742253  0.69500322  0.47976281     0.76070
O967        O  0.94981860  0.75312445  0.45930608    -0.57720
C968        C  0.89225055  0.69496816  0.02075195     0.76040
C969        C  0.98338085  0.72709897  0.06159788     0.78430
Cd970      Cd  0.96482195  0.70958684  0.00049054     1.37470
O971        O  0.51603682  0.66788524  0.48566475    -0.56560
O972        O  0.98090983  0.69382058  0.05230000    -0.55370
C973        C  0.94660188  0.72729964  0.43928761     0.78390
O974        O  0.97958890  0.75290245  0.04154973    -0.57740
O975        O  0.52543058  0.72750786  0.48528689    -0.56190
O976        O  0.90368470  0.72751454  0.01549037    -0.56180
O977        O  0.94914840  0.69403363  0.44873692    -0.55350
O978        O  0.78445434  0.70321374  0.11739421    -0.56560
C979        C  0.77627988  0.61023723  0.08961819     0.76070
O980        O  0.76286682  0.68340890  0.00672623    -0.57720
C981        C  0.77989217  0.73733007  0.11214119     0.76040
C982        C  0.85528004  0.68980385  0.03400465     0.78430
Cd983      Cd  0.78333648  0.68250469  0.06205526     1.37460
O984        O  0.74868170  0.63054076  0.08297974    -0.56560
O985        O  0.84216779  0.65813536  0.03951492    -0.55370
C986        C  0.72857872  0.68594415  0.01215869     0.78390
O987        O  0.83524679  0.71742902  0.04123009    -0.57740
O988        O  0.80793525  0.62315585  0.08367554    -0.56190
O989        O  0.77617677  0.74642456  0.08396739    -0.56140
O990        O  0.71926482  0.68763585  0.04045182    -0.55350
O991        O  0.63102127  0.55265656  0.38981453    -0.56560
C992        C  0.65670805  0.92985171  0.35325810     0.76070
O993        O  0.72024817  0.51369233  0.33600699    -0.57720
C994        C  0.65799026  0.57381706  0.39651297     0.76040
C995        C  0.69260229  0.98020977  0.43598313     0.78430
Cd996      Cd  0.67335824  0.50137501  0.37520734     1.37470
O997        O  0.63008858  0.95234734  0.35922851    -0.56560
O998        O  0.65915879  0.98192256  0.42704731    -0.55370
C999        C  0.69650918  0.52187354  0.31517340     0.78390
O1000       O  0.71763966  0.98618175  0.41565965    -0.57740
O1001       O  0.68937675  0.94047870  0.35876982    -0.56190
O1002       O  0.69057335  0.56150775  0.39200483    -0.56180
O1003       O  0.66266898  0.52249780  0.32330033    -0.55350
O1004       O  0.68049926  0.62989945  0.41753098    -0.56560
C1005       C  0.64836658  0.73828665  0.38736781     0.76070
O1006       O  0.59361355  0.71772351  0.45883833    -0.57720
C1007       C  0.65282405  0.61088217  0.40971022     0.76040
C1008       C  0.70103199  0.68610713  0.48696896     0.78430
Cd1009     Cd  0.64597471  0.68316437  0.43733778     1.37470
O1010       O  0.64684622  0.70400350  0.38197019    -0.56560
O1011       O  0.71023687  0.68780405  0.45865119    -0.55370
C1012       C  0.57428607  0.68999561  0.46610019     0.78390
O1013       O  0.66679447  0.68387158  0.49247614    -0.57740
O1014       O  0.64967643  0.74745496  0.41565692    -0.56190
O1015       O  0.62119632  0.62518030  0.41440426    -0.56180
O1016       O  0.58797261  0.65840403  0.46023480    -0.55350
C1017       C  0.93937324  0.75412100  0.34267267    -0.04210
C1018       C  0.95653947  0.72111240  0.35227104    -0.31640
C1019       C  0.95801406  0.71165128  0.38362641     0.37610
C1020       C  0.94193477  0.73527901  0.40605599    -0.04570
C1021       C  0.92346367  0.76757667  0.39648252    -0.31540
C1022       C  0.92201470  0.77708398  0.36499390     0.37520
H1023       H  0.47062619  0.70341468  0.33560810     0.17890
O1024       O  0.47796744  0.68084118  0.39226840    -0.59040
H1025       H  0.91065601  0.78577942  0.41347173     0.17900
O1026       O  0.90361845  0.80881452  0.35631499    -0.59130
H1027       H  0.92088762  0.82925947  0.36086120     0.44900
H1028       H  0.46087782  0.65980115  0.38953161     0.44850
C1029       C  0.98711681  0.75250697  0.15847288    -0.04210
C1030       C  0.50486719  0.77578424  0.13701641    -0.31640
C1031       C  0.50532780  0.76721841  0.10535360     0.37610
C1032       C  0.98792847  0.73498104  0.09481678    -0.04570
C1033       C  0.97174734  0.71087861  0.11638407    -0.31540
C1034       C  0.97079219  0.71960743  0.14790803     0.37520
H1035       H  0.51759021  0.80120190  0.14468571     0.17890
O1036       O  0.52218935  0.79084415  0.08491082    -0.59040
H1037       H  0.95789373  0.68610422  0.10860207     0.17900
O1038       O  0.95198348  0.69680175  0.16782630    -0.59130
H1039       H  0.92599690  0.70594047  0.16753388     0.44900
H1040       H  0.54777333  0.78103488  0.08248573     0.44850
C1041       C  0.70189280  0.97361863  0.46894463    -0.04210
C1042       C  0.73902774  0.96867151  0.47746088    -0.31640
C1043       C  0.74942080  0.96867198  0.00868383     0.37610
C1044       C  0.72238291  0.97363383  0.03215054    -0.04570
C1045       C  0.68498478  0.97598693  0.02367407    -0.31540
C1046       C  0.67459397  0.97585133  0.49245793     0.37520
H1047       H  0.76040179  0.96628296  0.45984181     0.17890
O1048       O  0.78624703  0.96497054  0.01581600    -0.59040
H1049       H  0.66368912  0.97956534  0.04122464     0.17900
O1050       O  0.63787843  0.48050612  0.48533013    -0.59130
H1051       H  0.62759731  0.45516438  0.98502957     0.44900
H1052       H  0.79671967  0.99006042  0.51319436     0.44850
C1053       C  0.72780261  0.52769273  0.21910098    -0.04210
C1054       C  0.69124131  0.53574769  0.22799892    -0.31640
C1055       C  0.68094523  0.53605667  0.25932485     0.37610
C1056       C  0.70749304  0.52819261  0.28247930    -0.04570
C1057       C  0.74450504  0.02242206  0.27362331    -0.31540
C1058       C  0.75480276  0.02221396  0.24232309     0.37520
H1059       H  0.67018320  0.54059951  0.21058151     0.17890
O1060       O  0.64465773  0.54323060  0.26688498    -0.59040
H1061       H  0.76540880  0.01636246  0.29091335     0.17900
O1062       O  0.79085209  0.01391212  0.23477213    -0.59130
H1063       H  0.80388791  0.03792511  0.23527396     0.44900
H1064       H  0.63165174  0.51948613  0.26372701     0.44850
O1065       O  0.79776310  0.55097439  0.60854684    -0.56560
C1066       C  0.77051267  0.92916013  0.64599405     0.76070
O1067       O  0.71129763  0.51633383  0.66590994    -0.57720
C1068       C  0.77096317  0.57333429  0.60294411     0.76040
C1069       C  0.73291425  0.98038923  0.56481213     0.78430
Cd1070     Cd  0.75512583  0.00145801  0.62474599     1.37460
O1071       O  0.79748453  0.95027981  0.63899563    -0.56560
O1072       O  0.76667443  0.98039871  0.57296299    -0.55370
C1073       C  0.73663678  0.52163041  0.68594997     0.78390
O1074       O  0.70881086  0.98827154  0.58558879    -0.57740
O1075       O  0.73789806  0.94142834  0.64170982    -0.56190
O1076       O  0.73838783  0.56242747  0.60872969    -0.56180
O1077       O  0.76998427  0.51985503  0.67653679    -0.55350
O1078       O  0.77993857  0.79926596  0.63193137    -0.56560
C1079       C  0.77571177  0.89219797  0.65932965     0.76070
O1080       O  0.76126676  0.81959194  0.74244844    -0.57720
C1081       C  0.77970809  0.76494334  0.63738101     0.76040
C1082       C  0.85446880  0.81362104  0.71534153     0.78430
Cd1083     Cd  0.78253450  0.82014596  0.68720450     1.37470
O1084       O  0.74806081  0.87343792  0.66781429    -0.56560
O1085       O  0.84100031  0.84525368  0.70932705    -0.55370
C1086       C  0.72707864  0.81718310  0.73698163     0.78390
O1087       O  0.83486463  0.78599136  0.70849422    -0.57740
O1088       O  0.80733952  0.87775062  0.66350484    -0.56190
O1089       O  0.77998524  0.75572297  0.66569369    -0.56180
O1090       O  0.71814260  0.81528579  0.70868282    -0.55350
O1091       O  0.51240900  0.83486646  0.76543746    -0.56560
C1092       C  0.89125643  0.80817465  0.72888875     0.76070
O1093       O  0.97357587  0.74241811  0.71247329    -0.57720
C1094       C  0.53510444  0.80844955  0.77133396     0.76040
C1095       C  0.94408398  0.76603978  0.81018521     0.78430
Cd1096     Cd  0.96323395  0.79077140  0.75037942     1.37460
O1097       O  0.91341042  0.83467554  0.73453875    -0.56560
O1098       O  0.94119609  0.79991367  0.80261834    -0.55370
C1099       C  0.98213465  0.76482428  0.69083827     0.78390
O1100       O  0.95351375  0.74320358  0.78900383    -0.57740
O1101       O  0.90233027  0.77555069  0.73472704    -0.56190
O1102       O  0.52456653  0.77574211  0.76603060    -0.56180
O1103       O  0.98453191  0.79885146  0.69785932    -0.55350
O1104       O  0.67870231  0.87297073  0.83250889    -0.56560
C1105       C  0.64785978  0.76594852  0.86212923     0.76070
O1106       O  0.59211495  0.78657954  0.79167595    -0.57720
C1107       C  0.65116944  0.89309731  0.83981912     0.76040
C1108       C  0.69927370  0.81740852  0.76217328     0.78430
Cd1109     Cd  0.64404105  0.82103480  0.81215089     1.37460
O1110       O  0.64451762  0.80015978  0.86751708    -0.56560
O1111       O  0.70830479  0.81567463  0.79046262    -0.55370
C1112       C  0.57193223  0.81410177  0.78456019     0.78390
O1113       O  0.66503573  0.82007051  0.75675331    -0.57740
O1114       O  0.65007024  0.75683332  0.83384719    -0.56190
O1115       O  0.61944325  0.88011638  0.83446710    -0.56180
O1116       O  0.58489008  0.84582285  0.79001527    -0.55350
O1117       O  0.91425473  0.66790201  0.51492971    -0.56560
C1118       C  0.53742254  0.69500321  0.97976282     0.76070
O1119       O  0.94981861  0.75312442  0.95930608    -0.57720
C1120       C  0.89225054  0.69496817  0.52075195     0.76040
C1121       C  0.98338085  0.72709897  0.56159788     0.78430
Cd1122     Cd  0.96482194  0.70958685  0.50049054     1.37470
O1123       O  0.51603682  0.66788524  0.98566475    -0.56560
O1124       O  0.98090984  0.69382058  0.55229999    -0.55370
C1125       C  0.94660187  0.72729961  0.93928761     0.78390
O1126       O  0.97958889  0.75290245  0.54154973    -0.57740
O1127       O  0.52543059  0.72750785  0.98528689    -0.56190
O1128       O  0.90368469  0.72751456  0.51549037    -0.56180
O1129       O  0.94914840  0.69403360  0.94873693    -0.55350
O1130       O  0.78445432  0.70321374  0.61739421    -0.56560
C1131       C  0.77627989  0.61023723  0.58961819     0.76070
O1132       O  0.76286682  0.68340889  0.50672623    -0.57720
C1133       C  0.77989216  0.73733007  0.61214119     0.76040
C1134       C  0.85528004  0.68980386  0.53400464     0.78430
Cd1135     Cd  0.78333648  0.68250469  0.56205526     1.37460
O1136       O  0.74868171  0.63054076  0.58297974    -0.56560
O1137       O  0.84216779  0.65813537  0.53951491    -0.55370
C1138       C  0.72857871  0.68594415  0.51215869     0.78390
O1139       O  0.83524678  0.71742903  0.54123009    -0.57740
O1140       O  0.80793526  0.62315586  0.58367554    -0.56190
O1141       O  0.77617678  0.74642456  0.58396739    -0.56140
O1142       O  0.71926482  0.68763587  0.54045183    -0.55350
O1143       O  0.63102127  0.55265656  0.88981452    -0.56560
C1144       C  0.65670805  0.92985170  0.85325810     0.76070
O1145       O  0.72024817  0.51369232  0.83600699    -0.57720
C1146       C  0.65799025  0.57381705  0.89651297     0.76040
C1147       C  0.69260228  0.98020976  0.93598313     0.78430
Cd1148     Cd  0.67335823  0.50137500  0.87520734     1.37470
O1149       O  0.63008858  0.95234733  0.85922851    -0.56560
O1150       O  0.65915878  0.98192255  0.92704731    -0.55370
C1151       C  0.69650918  0.52187354  0.81517340     0.78390
O1152       O  0.71763965  0.98618174  0.91565965    -0.57740
O1153       O  0.68937675  0.94047869  0.85876982    -0.56190
O1154       O  0.69057335  0.56150774  0.89200484    -0.56180
O1155       O  0.66266898  0.52249779  0.82330033    -0.55350
O1156       O  0.68049925  0.62989943  0.91753099    -0.56560
C1157       C  0.64836658  0.73828665  0.88736781     0.76070
O1158       O  0.59361356  0.71772350  0.95883834    -0.57720
C1159       C  0.65282405  0.61088216  0.90971021     0.76040
C1160       C  0.70103200  0.68610713  0.98696896     0.78430
Cd1161     Cd  0.64597471  0.68316436  0.93733778     1.37470
O1162       O  0.64684625  0.70400349  0.88197019    -0.56560
O1163       O  0.71023687  0.68780406  0.95865119    -0.55370
C1164       C  0.57428608  0.68999560  0.96610019     0.78390
O1165       O  0.66679448  0.68387155  0.99247614    -0.57740
O1166       O  0.64967640  0.74745495  0.91565692    -0.56190
O1167       O  0.62119632  0.62518030  0.91440425    -0.56180
O1168       O  0.58797261  0.65840402  0.96023480    -0.55350
C1169       C  0.93937322  0.75412097  0.84267267    -0.04210
C1170       C  0.95653942  0.72111236  0.85227104    -0.31640
C1171       C  0.95801401  0.71165123  0.88362640     0.37610
C1172       C  0.94193476  0.73527898  0.90605600    -0.04570
C1173       C  0.92346369  0.76757666  0.89648253    -0.31540
C1174       C  0.92201472  0.77708397  0.86499391     0.37520
H1175       H  0.47062620  0.70341466  0.83560811     0.17890
O1176       O  0.47796746  0.68084117  0.89226840    -0.59040
H1177       H  0.91065606  0.78577943  0.91347174     0.17900
O1178       O  0.90361851  0.80881454  0.85631500    -0.59130
H1179       H  0.92088770  0.82925947  0.86086121     0.44900
H1180       H  0.46087785  0.65980114  0.88953162     0.44850
C1181       C  0.98711682  0.75250695  0.65847288    -0.04210
C1182       C  0.50486716  0.77578425  0.63701641    -0.31640
C1183       C  0.50532778  0.76721842  0.60535360     0.37610
C1184       C  0.98792848  0.73498104  0.59481678    -0.04570
C1185       C  0.97174739  0.71087859  0.61638407    -0.31540
C1186       C  0.97079225  0.71960739  0.64790803     0.37520
H1187       H  0.51759015  0.80120192  0.64468570     0.17890
O1188       O  0.52218928  0.79084419  0.58491081    -0.59040
H1189       H  0.95789381  0.68610417  0.60860207     0.17900
O1190       O  0.95198357  0.69680169  0.66782630    -0.59130
H1191       H  0.92599698  0.70594036  0.66753389     0.44900
H1192       H  0.54777328  0.78103495  0.58248571     0.44850
C1193       C  0.70189279  0.97361862  0.96894463    -0.04210
C1194       C  0.73902773  0.96867148  0.97746088    -0.31640
C1195       C  0.74942081  0.96867201  0.50868383     0.37610
C1196       C  0.72238292  0.97363383  0.53215054    -0.04570
C1197       C  0.68498479  0.97598691  0.52367407    -0.31540
C1198       C  0.67459396  0.97585135  0.99245793     0.37520
H1199       H  0.76040177  0.96628291  0.95984181     0.17890
O1200       O  0.78624705  0.96497060  0.51581600    -0.59040
H1201       H  0.66368913  0.97956530  0.54122464     0.17900
O1202       O  0.63787841  0.48050613  0.98533013    -0.59130
H1203       H  0.62759734  0.45516438  0.48502957     0.44900
H1204       H  0.79671968  0.99006036  0.01319436     0.44850
C1205       C  0.72780263  0.52769273  0.71910098    -0.04210
C1206       C  0.69124133  0.53574769  0.72799892    -0.31640
C1207       C  0.68094524  0.53605667  0.75932485     0.37610
C1208       C  0.70749305  0.52819261  0.78247930    -0.04570
C1209       C  0.74450504  0.02242206  0.77362331    -0.31540
C1210       C  0.75480277  0.02221396  0.74232309     0.37520
H1211       H  0.67018323  0.54059952  0.71058151     0.17890
O1212       O  0.64465775  0.54323062  0.76688497    -0.59040
H1213       H  0.76540880  0.01636247  0.79091335     0.17900
O1214       O  0.79085209  0.01391213  0.73477213    -0.59130
H1215       H  0.80388791  0.03792513  0.73527396     0.44900
H1216       H  0.63165175  0.51948615  0.76372700     0.44850
loop_ 
_geom_bond_atom_site_label_1 
_geom_bond_atom_site_label_2 
_geom_bond_distance 
_geom_bond_site_symmetry_2 
_ccdc_geom_bond_type 
O1            C4   1.278       .  A
O1         Cd310   2.471       .  S
C2           O11   1.269       .  A
C2            O7   1.279       .  A
C2           C15   1.464       .  S
O3            C9   1.277       .  A
O3         Cd310   2.430       .  S
C4           O12   1.269       .  A
C4           C67   1.465       .  S
C5           O10   1.277       .  A
C5            O8   1.271       .  A
C5          C132   1.480       .  S
Cd6          O11   2.376       .  S
Cd6           O7   2.467       .  S
Cd6          O10   2.431       .  S
Cd6           O8   2.391       .  S
Cd6         O305   2.471       .  S
Cd6         O307   2.430       .  S
Cd6         O317   2.393       .  S
Cd6         O316   2.381       .  S
C9           O13   1.271       .  A
C9          C141   1.478       .  S
O12        Cd310   2.381       .  S
O13        Cd310   2.393       .  S
O14          C17   1.262       .  A
O14         Cd19   2.500       .  S
C15          O24   1.265       .  A
C15          O20   1.266       .  A
O16          C22   1.262       .  A
O16         Cd19   2.498       .  S
C17          O25   1.264       .  A
C17          C69   1.476       .  S
C18          O23   1.266       .  A
C18          O21   1.265       .  A
C18          C28   1.465       .  S
Cd19         O26   2.508       .  S
Cd19         O25   2.509       .  S
Cd19         O24   2.491       .  S
Cd19         O20   2.432       .  S
Cd19         O23   2.430       .  S
Cd19         O21   2.500       .  S
C22          O26   1.264       .  A
C22          C44   1.476       .  S
O27          C30   1.278       .  A
O27        Cd640   2.487   1_455  S
C28          O37   1.266       .  A
C28          O33   1.278       .  A
O29          C35   1.273       .  A
O29         Cd32   2.417       .  S
C30          O38   1.266       .  A
C30          C48   1.466       .  S
C31          O36   1.274       .  A
C31          O34   1.270       .  A
C31         C105   1.474       .  S
Cd32         O39   2.405       .  S
Cd32         O37   2.374       .  S
Cd32         O33   2.485       .  S
Cd32         O36   2.419       .  S
Cd32         O34   2.406       .  S
Cd32        O635   2.487       .  S
Cd32        O646   2.376       .  S
C35          O39   1.270       .  A
C35         C117   1.474       .  S
O38        Cd640   2.376   1_455  S
O40          C43   1.265       .  A
O40         Cd45   2.432       .  S
C41          O50   1.264       .  A
C41          O46   1.262       .  A
C41          C93   1.476       .  S
O42          C48   1.265       .  A
O42         Cd45   2.431       .  S
C43          O51   1.265       .  A
C43          C80   1.465       .  S
C44          O49   1.262       .  A
C44          O47   1.264       .  A
Cd45         O52   2.501       .  S
Cd45         O51   2.496       .  S
Cd45         O50   2.508       .  S
Cd45         O46   2.501       .  S
Cd45         O49   2.501       .  S
Cd45         O47   2.505       .  S
C48          O52   1.265       .  A
O53          C56   1.279       .  A
O53         Cd58   2.457       .  S
C54          O63   1.270       .  A
C54          O59   1.279       .  A
C54         C100   1.464       .  S
O55          C61   1.277       .  A
O55        Cd210   2.429       .  S
C56          O64   1.270       .  A
C56          C70   1.464       .  S
C57          O62   1.277       .  A
C57          O60   1.272       .  A
C57         C120   1.469       .  S
Cd58         O64   2.383       .  S
Cd58         O62   2.427       .  S
Cd58         O60   2.376       .  S
Cd58        O207   2.429   1_554  S
Cd58        O217   2.372   1_554  S
Cd58        O823   2.379   1_554  S
Cd58        O819   2.457   1_554  S
O59        Cd818   2.457   1_455  S
C61          O65   1.271       .  A
C61         C108   1.470       .  S
O63        Cd818   2.379   1_455  S
O65        Cd210   2.372       .  S
O66          C69   1.262       .  A
O66         Cd71   2.499       .  S
C67          O76   1.265       .  A
C67          O72   1.266       .  A
O68          C74   1.262       .  A
O68         Cd71   2.498       .  S
C69          O77   1.264       .  A
C70          O75   1.265       .  A
C70          O73   1.265       .  A
Cd71         O78   2.503       .  S
Cd71         O77   2.506       .  S
Cd71         O76   2.494       .  S
Cd71         O72   2.438       .  S
Cd71         O75   2.439       .  S
Cd71         O73   2.487       .  S
C74          O78   1.264       .  A
C74         C248   1.475   1_554  S
O79          C82   1.279       .  A
O79         Cd84   2.471       .  S
C80          O89   1.268       .  A
C80          O85   1.278       .  A
O81          C87   1.276       .  A
O81         Cd84   2.431       .  S
C82          O90   1.269       .  A
C82          C95   1.465       .  S
C83          O88   1.276       .  A
C83          O86   1.270       .  A
C83         C129   1.479       .  S
Cd84         O91   2.394       .  S
Cd84         O90   2.380       .  S
Cd84        O393   2.377   1_545  S
Cd84        O389   2.474   1_545  S
Cd84        O392   2.429   1_545  S
Cd84        O390   2.396   1_545  S
O85        Cd388   2.474       .  S
O86        Cd388   2.396       .  S
C87          O91   1.270       .  A
C87         C144   1.480       .  S
O88        Cd388   2.429       .  S
O89        Cd388   2.377       .  S
O92          C95   1.266       .  A
O92         Cd97   2.436       .  S
C93         O102   1.264       .  A
C93          O98   1.262       .  A
O94         C100   1.265       .  A
O94         Cd97   2.437       .  S
C95         O103   1.265       .  A
C96         O101   1.262       .  A
C96          O99   1.265       .  A
C96         C226   1.475       .  S
Cd97        O104   2.487       .  S
Cd97        O103   2.493       .  S
Cd97        O102   2.508       .  S
Cd97         O98   2.501       .  S
Cd97        O101   2.494       .  S
Cd97         O99   2.507       .  S
C100        O104   1.265       .  A
C105        C106   1.402       .  A
C105        C110   1.411       .  A
C106        C107   1.394       .  A
C106        H719   1.084       .  S
C107        C108   1.409       .  A
C107        O720   1.372       .  S
C108        C109   1.401       .  A
C109        C110   1.400       .  A
C109        H113   1.084       .  S
C110        O114   1.372       .  S
H111        C714   1.084       .  S
O112        C715   1.372       .  S
O112        H116   0.992       .  S
O114        H115   0.992       .  S
C117        C122   1.409       .  A
C117        C726   1.406       .  A
C118        C119   1.399       .  A
C118        C725   1.406   1_455  A
C118        H123   1.083       .  S
C119        C728   1.406   1_455  A
C119        O124   1.371       .  S
C120        C121   1.403       .  A
C120        C727   1.406       .  A
C121        C122   1.394       .  A
C121        H125   1.084       .  S
C122        O126   1.372       .  S
O124        H128   0.992       .  S
O126        H127   0.992       .  S
C129        C130   1.402       .  A
C129        C134   1.413       .  A
C130        C283   1.398       .  A
C130        H135   1.084       .  S
C131        C132   1.413       .  A
C131        C282   1.398   1_554  A
C131        O136   1.372       .  S
C132        C133   1.403       .  A
C133        C286   1.397   1_554  A
C133        H137   1.083       .  S
C134        C285   1.397       .  A
C134        O442   1.371       .  S
O136        H292   0.992       .  S
O138        C438   1.371       .  S
O138        H291   0.992       .  S
H139        O290   0.992       .  S
H140        O288   0.992       .  S
C141        C142   1.402       .  A
C141        C450   1.412       .  A
C142        C143   1.398       .  A
C142        H147   1.084       .  S
C143        C144   1.413       .  A
C143        O148   1.372       .  S
C144        C449   1.403       .  A
C145        C146   1.397       .  A
C145        C448   1.403       .  A
C145        H149   1.083       .  S
C146        C445   1.412       .  A
C146        O150   1.372       .  S
O148        H152   0.992       .  S
O150        H151   0.992       .  S
O153        C156   1.278       .  A
O153       Cd462   2.471       .  S
C154        O163   1.269       .  A
C154        O159   1.279       .  A
C154        C167   1.464       .  S
O155        C161   1.277       .  A
O155       Cd462   2.430       .  S
C156        O164   1.269       .  A
C156        C219   1.465       .  S
C157        O162   1.277       .  A
C157        O160   1.271       .  A
C157        C284   1.480       .  S
Cd158       O457   2.471       .  S
Cd158       O459   2.430       .  S
Cd158       O469   2.393       .  S
Cd158       O468   2.381       .  S
Cd158       O163   2.376       .  S
Cd158       O159   2.467       .  S
Cd158       O162   2.431       .  S
Cd158       O160   2.391       .  S
C161        O165   1.271       .  A
C161        C293   1.478       .  S
O164       Cd462   2.381       .  S
O165       Cd462   2.393       .  S
O166        C169   1.262       .  A
O166       Cd171   2.500       .  S
C167        O176   1.265       .  A
C167        O172   1.266       .  A
O168        C174   1.262       .  A
O168       Cd171   2.498       .  S
C169        O177   1.264       .  A
C169        C221   1.476       .  S
C170        O175   1.266       .  A
C170        O173   1.265       .  A
C170        C180   1.465       .  S
Cd171       O178   2.508       .  S
Cd171       O177   2.509       .  S
Cd171       O176   2.491       .  S
Cd171       O172   2.432       .  S
Cd171       O175   2.430       .  S
Cd171       O173   2.500       .  S
C174        O178   1.264       .  A
C174        C196   1.476       .  S
O179        C182   1.278       .  A
O179       Cd792   2.487   1_455  S
C180        O189   1.266       .  A
C180        O185   1.278       .  A
O181        C187   1.273       .  A
O181       Cd184   2.417       .  S
C182        O190   1.266       .  A
C182        C200   1.466       .  S
C183        O188   1.274       .  A
C183        O186   1.270       .  A
C183        C257   1.474       .  S
Cd184       O787   2.487       .  S
Cd184       O191   2.405       .  S
Cd184       O798   2.376       .  S
Cd184       O189   2.374       .  S
Cd184       O185   2.485       .  S
Cd184       O188   2.419       .  S
Cd184       O186   2.406       .  S
C187        O191   1.270       .  A
C187        C269   1.474       .  S
O190       Cd792   2.376   1_455  S
O192        C195   1.265       .  A
O192       Cd197   2.432       .  S
C193        O202   1.264       .  A
C193        O198   1.262       .  A
C193        C245   1.476       .  S
O194        C200   1.265       .  A
O194       Cd197   2.431       .  S
C195        O203   1.265       .  A
C195        C232   1.465       .  S
C196        O201   1.262       .  A
C196        O199   1.264       .  A
Cd197       O204   2.501       .  S
Cd197       O203   2.496       .  S
Cd197       O202   2.508       .  S
Cd197       O198   2.501       .  S
Cd197       O201   2.501       .  S
Cd197       O199   2.505       .  S
C200        O204   1.265       .  A
O205        C208   1.279       .  A
O205       Cd210   2.457       .  S
C206        O215   1.270       .  A
C206        O211   1.279       .  A
C206        C252   1.464       .  S
O207        C213   1.277       .  A
C208        O216   1.270       .  A
C208        C222   1.464       .  S
C209        O214   1.277       .  A
C209        O212   1.272       .  A
C209        C272   1.469       .  S
Cd210       O216   2.383       .  S
Cd210       O671   2.379       .  S
Cd210       O667   2.457       .  S
Cd210       O214   2.427       .  S
Cd210       O212   2.376       .  S
O211       Cd666   2.457   1_456  S
C213        O217   1.271       .  A
C213        C260   1.470       .  S
O215       Cd666   2.379   1_456  S
O218        C221   1.262       .  A
O218       Cd223   2.499       .  S
C219        O228   1.265       .  A
C219        O224   1.266       .  A
O220        C226   1.262       .  A
O220       Cd223   2.498       .  S
C221        O229   1.264       .  A
C222        O227   1.265       .  A
C222        O225   1.265       .  A
Cd223       O230   2.503       .  S
Cd223       O229   2.506       .  S
Cd223       O228   2.494       .  S
Cd223       O224   2.438       .  S
Cd223       O227   2.439       .  S
Cd223       O225   2.487       .  S
C226        O230   1.264       .  A
O231        C234   1.279       .  A
O231       Cd236   2.471       .  S
C232        O241   1.268       .  A
C232        O237   1.278       .  A
O233        C239   1.276       .  A
O233       Cd236   2.431       .  S
C234        O242   1.269       .  A
C234        C247   1.465       .  S
C235        O240   1.276       .  A
C235        O238   1.270       .  A
C235        C281   1.479       .  S
Cd236       O243   2.394       .  S
Cd236       O242   2.380       .  S
Cd236       O545   2.377   1_545  S
Cd236       O541   2.474   1_545  S
Cd236       O544   2.429   1_545  S
Cd236       O542   2.396   1_545  S
O237       Cd540   2.474       .  S
O238       Cd540   2.396       .  S
C239        O243   1.270       .  A
C239        C296   1.480       .  S
O240       Cd540   2.429       .  S
O241       Cd540   2.377       .  S
O244        C247   1.266       .  A
O244       Cd249   2.436       .  S
C245        O254   1.264       .  A
C245        O250   1.262       .  A
O246        C252   1.265       .  A
O246       Cd249   2.437       .  S
C247        O255   1.265       .  A
C248        O253   1.262       .  A
C248        O251   1.265       .  A
Cd249       O256   2.487       .  S
Cd249       O255   2.493       .  S
Cd249       O254   2.508       .  S
Cd249       O250   2.501       .  S
Cd249       O253   2.494       .  S
Cd249       O251   2.507       .  S
C252        O256   1.265       .  A
C257        C258   1.402       .  A
C257        C262   1.411       .  A
C258        C259   1.394       .  A
C258        H871   1.084       .  S
C259        C260   1.409       .  A
C259        O872   1.372       .  S
C260        C261   1.401       .  A
C261        C262   1.400       .  A
C261        H265   1.084       .  S
C262        O266   1.372       .  S
H263        C866   1.084       .  S
O264        C867   1.372       .  S
O264        H268   0.992       .  S
O266        H267   0.992       .  S
C269        C878   1.406       .  A
C269        C274   1.409       .  A
C270        C877   1.406   1_455  A
C270        C271   1.399       .  A
C270        H275   1.083       .  S
C271        C880   1.406   1_455  A
C271        O276   1.371       .  S
C272        C879   1.406       .  A
C272        C273   1.403       .  A
C273        C274   1.394       .  A
C273        H277   1.084       .  S
C274        O278   1.372       .  S
O276        H280   0.992       .  S
O278        H279   0.992       .  S
C281        C282   1.402       .  A
C281        C286   1.413       .  A
C282        H287   1.084       .  S
C283        C284   1.413       .  A
C283        O288   1.372       .  S
C284        C285   1.403       .  A
C285        H289   1.083       .  S
C286        O594   1.371       .  S
O290        C590   1.371       .  S
C293        C294   1.402       .  A
C293        C602   1.412       .  A
C294        C295   1.398       .  A
C294        H299   1.084       .  S
C295        C296   1.413       .  A
C295        O300   1.372       .  S
C296        C601   1.403       .  A
C297        C600   1.403       .  A
C297        C298   1.397       .  A
C297        H301   1.083       .  S
C298        C597   1.412       .  A
C298        O302   1.372       .  S
O300        H304   0.992       .  S
O302        H303   0.992       .  S
O305        C308   1.278       .  A
C306        O315   1.269       .  A
C306        O311   1.279       .  A
C306        C319   1.464       .  S
O307        C313   1.277       .  A
C308        O316   1.269       .  A
C308        C371   1.465       .  S
C309        O314   1.277       .  A
C309        O312   1.271       .  A
C309        C436   1.480       .  S
Cd310       O315   2.376   1_545  S
Cd310       O311   2.467   1_545  S
Cd310       O314   2.431   1_545  S
Cd310       O312   2.391   1_545  S
C313        O317   1.271       .  A
C313        C445   1.478       .  S
O318        C321   1.262       .  A
O318       Cd323   2.500       .  S
C319        O328   1.265       .  A
C319        O324   1.266       .  A
O320        C326   1.262       .  A
O320       Cd323   2.498       .  S
C321        O329   1.264       .  A
C321        C373   1.476       .  S
C322        O327   1.266       .  A
C322        O325   1.265       .  A
C322        C332   1.465       .  S
Cd323       O330   2.508       .  S
Cd323       O329   2.509       .  S
Cd323       O328   2.491       .  S
Cd323       O324   2.432       .  S
Cd323       O327   2.430       .  S
Cd323       O325   2.500       .  S
C326        O330   1.264       .  A
C326        C348   1.476       .  S
O331        C334   1.278       .  A
O331       Cd944   2.487   1_455  S
C332        O341   1.266       .  A
C332        O337   1.278       .  A
O333        C339   1.273       .  A
O333       Cd336   2.417       .  S
C334        O342   1.266       .  A
C334        C352   1.466       .  S
C335        O340   1.274       .  A
C335        O338   1.270       .  A
C335        C409   1.474       .  S
Cd336       O939   2.487       .  S
Cd336       O343   2.405       .  S
Cd336       O950   2.376       .  S
Cd336       O341   2.374       .  S
Cd336       O337   2.485       .  S
Cd336       O340   2.419       .  S
Cd336       O338   2.406       .  S
C339        O343   1.270       .  A
C339        C421   1.474       .  S
O342       Cd944   2.376   1_455  S
O344        C347   1.265       .  A
O344       Cd349   2.432       .  S
C345        O354   1.264       .  A
C345        O350   1.262       .  A
C345        C397   1.476       .  S
O346        C352   1.265       .  A
O346       Cd349   2.431       .  S
C347        O355   1.265       .  A
C347        C384   1.465       .  S
C348        O353   1.262       .  A
C348        O351   1.264       .  A
Cd349       O356   2.501       .  S
Cd349       O355   2.496       .  S
Cd349       O354   2.508       .  S
Cd349       O350   2.501       .  S
Cd349       O353   2.501       .  S
Cd349       O351   2.505       .  S
C352        O356   1.265       .  A
O357        C360   1.279       .  A
O357       Cd362   2.457       .  S
C358        O367   1.270       .  A
C358        O363   1.279       .  A
C358        C404   1.464       .  S
O359        C365   1.277       .  A
O359       Cd514   2.429       .  S
C360        O368   1.270       .  A
C360        C374   1.464       .  S
C361        O366   1.277       .  A
C361        O364   1.272       .  A
C361        C424   1.469       .  S
Cd362       O511   2.429   1_554  S
Cd362       O521   2.372   1_554  S
Cd362       O368   2.383       .  S
Cd362      O1127   2.379   1_554  S
Cd362      O1123   2.457   1_554  S
Cd362       O366   2.427       .  S
Cd362       O364   2.376       .  S
O363      Cd1122   2.457   1_455  S
C365        O369   1.271       .  A
C365        C412   1.470       .  S
O367      Cd1122   2.379   1_455  S
O369       Cd514   2.372       .  S
O370        C373   1.262       .  A
O370       Cd375   2.499       .  S
C371        O380   1.265       .  A
C371        O376   1.266       .  A
O372        C378   1.262       .  A
O372       Cd375   2.498       .  S
C373        O381   1.264       .  A
C374        O379   1.265       .  A
C374        O377   1.265       .  A
Cd375       O382   2.503       .  S
Cd375       O381   2.506       .  S
Cd375       O380   2.494       .  S
Cd375       O376   2.438       .  S
Cd375       O379   2.439       .  S
Cd375       O377   2.487       .  S
C378        O382   1.264       .  A
C378        C552   1.475   1_554  S
O383        C386   1.279       .  A
O383       Cd388   2.471       .  S
C384        O393   1.268       .  A
C384        O389   1.278       .  A
O385        C391   1.276       .  A
O385       Cd388   2.431       .  S
C386        O394   1.269       .  A
C386        C399   1.465       .  S
C387        O392   1.276       .  A
C387        O390   1.270       .  A
C387        C433   1.479       .  S
Cd388       O395   2.394       .  S
Cd388       O394   2.380       .  S
C391        O395   1.270       .  A
C391        C448   1.480       .  S
O396        C399   1.266       .  A
O396       Cd401   2.436       .  S
C397        O406   1.264       .  A
C397        O402   1.262       .  A
O398        C404   1.265       .  A
O398       Cd401   2.437       .  S
C399        O407   1.265       .  A
C400        O405   1.262       .  A
C400        O403   1.265       .  A
C400        C530   1.475       .  S
Cd401       O408   2.487       .  S
Cd401       O407   2.493       .  S
Cd401       O406   2.508       .  S
Cd401       O402   2.501       .  S
Cd401       O405   2.494       .  S
Cd401       O403   2.507       .  S
C404        O408   1.265       .  A
C409        C410   1.402       .  A
C409        C414   1.411       .  A
C410        C411   1.394       .  A
C410       H1023   1.084       .  S
C411        C412   1.409       .  A
C411       O1024   1.372       .  S
C412        C413   1.401       .  A
C413        C414   1.400       .  A
C413        H417   1.084       .  S
C414        O418   1.372       .  S
H415       C1018   1.084       .  S
O416       C1019   1.372       .  S
O416        H420   0.992       .  S
O418        H419   0.992       .  S
C421       C1030   1.406       .  A
C421        C426   1.409       .  A
C422       C1029   1.406   1_455  A
C422        C423   1.399       .  A
C422        H427   1.083       .  S
C423       C1032   1.406   1_455  A
C423        O428   1.371       .  S
C424       C1031   1.406       .  A
C424        C425   1.403       .  A
C425        C426   1.394       .  A
C425        H429   1.084       .  S
C426        O430   1.372       .  S
O428        H432   0.992       .  S
O430        H431   0.992       .  S
C433        C434   1.402       .  A
C433        C438   1.413       .  A
C434        C587   1.398       .  A
C434        H439   1.084       .  S
C435        C586   1.398   1_554  A
C435        C436   1.413       .  A
C435        O440   1.372       .  S
C436        C437   1.403       .  A
C437        C590   1.397   1_554  A
C437        H441   1.083       .  S
C438        C589   1.397       .  A
O440        H596   0.992       .  S
O442        H595   0.992       .  S
H443        O594   0.992       .  S
H444        O592   0.992       .  S
C445        C446   1.402       .  A
C446        C447   1.398       .  A
C446        H451   1.084       .  S
C447        C448   1.413       .  A
C447        O452   1.372       .  S
C449        C450   1.397       .  A
C449        H453   1.083       .  S
C450        O454   1.372       .  S
O452        H456   0.992       .  S
O454        H455   0.992       .  S
O457        C460   1.278       .  A
C458        O467   1.269       .  A
C458        O463   1.279       .  A
C458        C471   1.464       .  S
O459        C465   1.277       .  A
C460        O468   1.269       .  A
C460        C523   1.465       .  S
C461        O466   1.277       .  A
C461        O464   1.271       .  A
C461        C588   1.480       .  S
Cd462       O467   2.376   1_545  S
Cd462       O463   2.467   1_545  S
Cd462       O466   2.431   1_545  S
Cd462       O464   2.391   1_545  S
C465        O469   1.271       .  A
C465        C597   1.478       .  S
O470        C473   1.262       .  A
O470       Cd475   2.500       .  S
C471        O480   1.265       .  A
C471        O476   1.266       .  A
O472        C478   1.262       .  A
O472       Cd475   2.498       .  S
C473        O481   1.264       .  A
C473        C525   1.476       .  S
C474        O479   1.266       .  A
C474        O477   1.265       .  A
C474        C484   1.465       .  S
Cd475       O482   2.508       .  S
Cd475       O481   2.509       .  S
Cd475       O480   2.491       .  S
Cd475       O476   2.432       .  S
Cd475       O479   2.430       .  S
Cd475       O477   2.500       .  S
C478        O482   1.264       .  A
C478        C500   1.476       .  S
O483        C486   1.278       .  A
O483      Cd1096   2.487   1_455  S
C484        O493   1.266       .  A
C484        O489   1.278       .  A
O485        C491   1.273       .  A
O485       Cd488   2.417       .  S
C486        O494   1.266       .  A
C486        C504   1.466       .  S
C487        O492   1.274       .  A
C487        O490   1.270       .  A
C487        C561   1.474       .  S
Cd488      O1091   2.487       .  S
Cd488       O495   2.405       .  S
Cd488      O1102   2.376       .  S
Cd488       O493   2.374       .  S
Cd488       O489   2.485       .  S
Cd488       O492   2.419       .  S
Cd488       O490   2.406       .  S
C491        O495   1.270       .  A
C491        C573   1.474       .  S
O494      Cd1096   2.376   1_455  S
O496        C499   1.265       .  A
O496       Cd501   2.432       .  S
C497        O506   1.264       .  A
C497        O502   1.262       .  A
C497        C549   1.476       .  S
O498        C504   1.265       .  A
O498       Cd501   2.431       .  S
C499        O507   1.265       .  A
C499        C536   1.465       .  S
C500        O505   1.262       .  A
C500        O503   1.264       .  A
Cd501       O508   2.501       .  S
Cd501       O507   2.496       .  S
Cd501       O506   2.508       .  S
Cd501       O502   2.501       .  S
Cd501       O505   2.501       .  S
Cd501       O503   2.505       .  S
C504        O508   1.265       .  A
O509        C512   1.279       .  A
O509       Cd514   2.457       .  S
C510        O519   1.270       .  A
C510        O515   1.279       .  A
C510        C556   1.464       .  S
O511        C517   1.277       .  A
C512        O520   1.270       .  A
C512        C526   1.464       .  S
C513        O518   1.277       .  A
C513        O516   1.272       .  A
C513        C576   1.469       .  S
Cd514       O520   2.383       .  S
Cd514       O975   2.379       .  S
Cd514       O971   2.457       .  S
Cd514       O518   2.427       .  S
Cd514       O516   2.376       .  S
O515       Cd970   2.457   1_456  S
C517        O521   1.271       .  A
C517        C564   1.470       .  S
O519       Cd970   2.379   1_456  S
O522        C525   1.262       .  A
O522       Cd527   2.499       .  S
C523        O532   1.265       .  A
C523        O528   1.266       .  A
O524        C530   1.262       .  A
O524       Cd527   2.498       .  S
C525        O533   1.264       .  A
C526        O531   1.265       .  A
C526        O529   1.265       .  A
Cd527       O534   2.503       .  S
Cd527       O533   2.506       .  S
Cd527       O532   2.494       .  S
Cd527       O528   2.438       .  S
Cd527       O531   2.439       .  S
Cd527       O529   2.487       .  S
C530        O534   1.264       .  A
O535        C538   1.279       .  A
O535       Cd540   2.471       .  S
C536        O545   1.268       .  A
C536        O541   1.278       .  A
O537        C543   1.276       .  A
O537       Cd540   2.431       .  S
C538        O546   1.269       .  A
C538        C551   1.465       .  S
C539        O544   1.276       .  A
C539        O542   1.270       .  A
C539        C585   1.479       .  S
Cd540       O547   2.394       .  S
Cd540       O546   2.380       .  S
C543        O547   1.270       .  A
C543        C600   1.480       .  S
O548        C551   1.266       .  A
O548       Cd553   2.436       .  S
C549        O558   1.264       .  A
C549        O554   1.262       .  A
O550        C556   1.265       .  A
O550       Cd553   2.437       .  S
C551        O559   1.265       .  A
C552        O557   1.262       .  A
C552        O555   1.265       .  A
Cd553       O560   2.487       .  S
Cd553       O559   2.493       .  S
Cd553       O558   2.508       .  S
Cd553       O554   2.501       .  S
Cd553       O557   2.494       .  S
Cd553       O555   2.507       .  S
C556        O560   1.265       .  A
C561        C562   1.402       .  A
C561        C566   1.411       .  A
C562        C563   1.394       .  A
C562       H1175   1.084       .  S
C563        C564   1.409       .  A
C563       O1176   1.372       .  S
C564        C565   1.401       .  A
C565        C566   1.400       .  A
C565        H569   1.084       .  S
C566        O570   1.372       .  S
H567       C1170   1.084       .  S
O568       C1171   1.372       .  S
O568        H572   0.992       .  S
O570        H571   0.992       .  S
C573       C1182   1.406       .  A
C573        C578   1.409       .  A
C574       C1181   1.406   1_455  A
C574        C575   1.399       .  A
C574        H579   1.083       .  S
C575       C1184   1.406   1_455  A
C575        O580   1.371       .  S
C576       C1183   1.406       .  A
C576        C577   1.403       .  A
C577        C578   1.394       .  A
C577        H581   1.084       .  S
C578        O582   1.372       .  S
O580        H584   0.992       .  S
O582        H583   0.992       .  S
C585        C586   1.402       .  A
C585        C590   1.413       .  A
C586        H591   1.084       .  S
C587        C588   1.413       .  A
C587        O592   1.372       .  S
C588        C589   1.403       .  A
C589        H593   1.083       .  S
C597        C598   1.402       .  A
C598        C599   1.398       .  A
C598        H603   1.084       .  S
C599        C600   1.413       .  A
C599        O604   1.372       .  S
C601        C602   1.397       .  A
C601        H605   1.083       .  S
C602        O606   1.372       .  S
O604        H608   0.992       .  S
O606        H607   0.992       .  S
O609        C612   1.278       .  A
O609       Cd918   2.471       .  S
C610        O619   1.269       .  A
C610        O615   1.279       .  A
C610        C623   1.464       .  S
O611        C617   1.277       .  A
O611       Cd918   2.430       .  S
C612        O620   1.269       .  A
C612        C675   1.465       .  S
C613        O618   1.277       .  A
C613        O616   1.271       .  A
C613        C740   1.480       .  S
Cd614       O913   2.471       .  S
Cd614       O915   2.430       .  S
Cd614       O925   2.393       .  S
Cd614       O924   2.381       .  S
Cd614       O619   2.376       .  S
Cd614       O615   2.467       .  S
Cd614       O618   2.431       .  S
Cd614       O616   2.391       .  S
C617        O621   1.271       .  A
C617        C749   1.478       .  S
O620       Cd918   2.381       .  S
O621       Cd918   2.393       .  S
O622        C625   1.262       .  A
O622       Cd627   2.500       .  S
C623        O632   1.265       .  A
C623        O628   1.266       .  A
O624        C630   1.262       .  A
O624       Cd627   2.498       .  S
C625        O633   1.264       .  A
C625        C677   1.476       .  S
C626        O631   1.266       .  A
C626        O629   1.265       .  A
C626        C636   1.465       .  S
Cd627       O634   2.508       .  S
Cd627       O633   2.509       .  S
Cd627       O632   2.491       .  S
Cd627       O628   2.432       .  S
Cd627       O631   2.430       .  S
Cd627       O629   2.500       .  S
C630        O634   1.264       .  A
C630        C652   1.476       .  S
O635        C638   1.278       .  A
C636        O645   1.266       .  A
C636        O641   1.278       .  A
O637        C643   1.273       .  A
O637       Cd640   2.417       .  S
C638        O646   1.266       .  A
C638        C656   1.466       .  S
C639        O644   1.274       .  A
C639        O642   1.270       .  A
C639        C713   1.474       .  S
Cd640       O647   2.405       .  S
Cd640       O645   2.374       .  S
Cd640       O641   2.485       .  S
Cd640       O644   2.419       .  S
Cd640       O642   2.406       .  S
C643        O647   1.270       .  A
C643        C725   1.474       .  S
O648        C651   1.265       .  A
O648       Cd653   2.432       .  S
C649        O658   1.264       .  A
C649        O654   1.262       .  A
C649        C701   1.476       .  S
O650        C656   1.265       .  A
O650       Cd653   2.431       .  S
C651        O659   1.265       .  A
C651        C688   1.465       .  S
C652        O657   1.262       .  A
C652        O655   1.264       .  A
Cd653       O660   2.501       .  S
Cd653       O659   2.496       .  S
Cd653       O658   2.508       .  S
Cd653       O654   2.501       .  S
Cd653       O657   2.501       .  S
Cd653       O655   2.505       .  S
C656        O660   1.265       .  A
O661        C664   1.279       .  A
O661       Cd666   2.457       .  S
C662        O671   1.270       .  A
C662        O667   1.279       .  A
C662        C708   1.464       .  S
O663        C669   1.277       .  A
O663       Cd818   2.429       .  S
C664        O672   1.270       .  A
C664        C678   1.464       .  S
C665        O670   1.277       .  A
C665        O668   1.272       .  A
C665        C728   1.469       .  S
Cd666       O815   2.429   1_554  S
Cd666       O825   2.372   1_554  S
Cd666       O672   2.383       .  S
Cd666       O670   2.427       .  S
Cd666       O668   2.376       .  S
C669        O673   1.271       .  A
C669        C716   1.470       .  S
O673       Cd818   2.372       .  S
O674        C677   1.262       .  A
O674       Cd679   2.499       .  S
C675        O684   1.265       .  A
C675        O680   1.266       .  A
O676        C682   1.262       .  A
O676       Cd679   2.498       .  S
C677        O685   1.264       .  A
C678        O683   1.265       .  A
C678        O681   1.265       .  A
Cd679       O686   2.503       .  S
Cd679       O685   2.506       .  S
Cd679       O684   2.494       .  S
Cd679       O680   2.438       .  S
Cd679       O683   2.439       .  S
Cd679       O681   2.487       .  S
C682        O686   1.264       .  A
C682        C856   1.475   1_554  S
O687        C690   1.279       .  A
O687       Cd692   2.471       .  S
C688        O697   1.268       .  A
C688        O693   1.278       .  A
O689        C695   1.276       .  A
O689       Cd692   2.431       .  S
C690        O698   1.269       .  A
C690        C703   1.465       .  S
C691        O696   1.276       .  A
C691        O694   1.270       .  A
C691        C737   1.479       .  S
Cd692       O699   2.394       .  S
Cd692       O698   2.380       .  S
Cd692      O1001   2.377   1_545  S
Cd692       O997   2.474   1_545  S
Cd692      O1000   2.429   1_545  S
Cd692       O998   2.396   1_545  S
O693       Cd996   2.474       .  S
O694       Cd996   2.396       .  S
C695        O699   1.270       .  A
C695        C752   1.480       .  S
O696       Cd996   2.429       .  S
O697       Cd996   2.377       .  S
O700        C703   1.266       .  A
O700       Cd705   2.436       .  S
C701        O710   1.264       .  A
C701        O706   1.262       .  A
O702        C708   1.265       .  A
O702       Cd705   2.437       .  S
C703        O711   1.265       .  A
C704        O709   1.262       .  A
C704        O707   1.265       .  A
C704        C834   1.475       .  S
Cd705       O712   2.487       .  S
Cd705       O711   2.493       .  S
Cd705       O710   2.508       .  S
Cd705       O706   2.501       .  S
Cd705       O709   2.494       .  S
Cd705       O707   2.507       .  S
C708        O712   1.265       .  A
C713        C714   1.402       .  A
C713        C718   1.411       .  A
C714        C715   1.394       .  A
C715        C716   1.409       .  A
C716        C717   1.401       .  A
C717        C718   1.400       .  A
C717        H721   1.084       .  S
C718        O722   1.372       .  S
O720        H724   0.992       .  S
O722        H723   0.992       .  S
C725        C730   1.409       .  A
C726        C727   1.399       .  A
C726        H731   1.083       .  S
C727        O732   1.371       .  S
C728        C729   1.403       .  A
C729        C730   1.394       .  A
C729        H733   1.084       .  S
C730        O734   1.372       .  S
O732        H736   0.992       .  S
O734        H735   0.992       .  S
C737        C738   1.402       .  A
C737        C742   1.413       .  A
C738        C891   1.398       .  A
C738        H743   1.084       .  S
C739        C890   1.398   1_554  A
C739        C740   1.413       .  A
C739        O744   1.372       .  S
C740        C741   1.403       .  A
C741        C894   1.397   1_554  A
C741        H745   1.083       .  S
C742        C893   1.397       .  A
C742       O1050   1.371       .  S
O744        H900   0.992       .  S
O746       C1046   1.371       .  S
O746        H899   0.992       .  S
H747        O898   0.992       .  S
H748        O896   0.992       .  S
C749        C750   1.402       .  A
C749       C1058   1.412       .  A
C750        C751   1.398       .  A
C750        H755   1.084       .  S
C751        C752   1.413       .  A
C751        O756   1.372       .  S
C752       C1057   1.403       .  A
C753       C1056   1.403       .  A
C753        C754   1.397       .  A
C753        H757   1.083       .  S
C754       C1053   1.412       .  A
C754        O758   1.372       .  S
O756        H760   0.992       .  S
O758        H759   0.992       .  S
O761        C764   1.278       .  A
O761      Cd1070   2.471       .  S
C762        O771   1.269       .  A
C762        O767   1.279       .  A
C762        C775   1.464       .  S
O763        C769   1.277       .  A
O763      Cd1070   2.430       .  S
C764        O772   1.269       .  A
C764        C827   1.465       .  S
C765        O770   1.277       .  A
C765        O768   1.271       .  A
C765        C892   1.480       .  S
Cd766      O1065   2.471       .  S
Cd766      O1067   2.430       .  S
Cd766      O1077   2.393       .  S
Cd766      O1076   2.381       .  S
Cd766       O771   2.376       .  S
Cd766       O767   2.467       .  S
Cd766       O770   2.431       .  S
Cd766       O768   2.391       .  S
C769        O773   1.271       .  A
C769        C901   1.478       .  S
O772      Cd1070   2.381       .  S
O773      Cd1070   2.393       .  S
O774        C777   1.262       .  A
O774       Cd779   2.500       .  S
C775        O784   1.265       .  A
C775        O780   1.266       .  A
O776        C782   1.262       .  A
O776       Cd779   2.498       .  S
C777        O785   1.264       .  A
C777        C829   1.476       .  S
C778        O783   1.266       .  A
C778        O781   1.265       .  A
C778        C788   1.465       .  S
Cd779       O786   2.508       .  S
Cd779       O785   2.509       .  S
Cd779       O784   2.491       .  S
Cd779       O780   2.432       .  S
Cd779       O783   2.430       .  S
Cd779       O781   2.500       .  S
C782        O786   1.264       .  A
C782        C804   1.476       .  S
O787        C790   1.278       .  A
C788        O797   1.266       .  A
C788        O793   1.278       .  A
O789        C795   1.273       .  A
O789       Cd792   2.417       .  S
C790        O798   1.266       .  A
C790        C808   1.466       .  S
C791        O796   1.274       .  A
C791        O794   1.270       .  A
C791        C865   1.474       .  S
Cd792       O799   2.405       .  S
Cd792       O797   2.374       .  S
Cd792       O793   2.485       .  S
Cd792       O796   2.419       .  S
Cd792       O794   2.406       .  S
C795        O799   1.270       .  A
C795        C877   1.474       .  S
O800        C803   1.265       .  A
O800       Cd805   2.432       .  S
C801        O810   1.264       .  A
C801        O806   1.262       .  A
C801        C853   1.476       .  S
O802        C808   1.265       .  A
O802       Cd805   2.431       .  S
C803        O811   1.265       .  A
C803        C840   1.465       .  S
C804        O809   1.262       .  A
C804        O807   1.264       .  A
Cd805       O812   2.501       .  S
Cd805       O811   2.496       .  S
Cd805       O810   2.508       .  S
Cd805       O806   2.501       .  S
Cd805       O809   2.501       .  S
Cd805       O807   2.505       .  S
C808        O812   1.265       .  A
O813        C816   1.279       .  A
O813       Cd818   2.457       .  S
C814        O823   1.270       .  A
C814        O819   1.279       .  A
C814        C860   1.464       .  S
O815        C821   1.277       .  A
C816        O824   1.270       .  A
C816        C830   1.464       .  S
C817        O822   1.277       .  A
C817        O820   1.272       .  A
C817        C880   1.469       .  S
Cd818       O824   2.383       .  S
Cd818       O822   2.427       .  S
Cd818       O820   2.376       .  S
C821        O825   1.271       .  A
C821        C868   1.470       .  S
O826        C829   1.262       .  A
O826       Cd831   2.499       .  S
C827        O836   1.265       .  A
C827        O832   1.266       .  A
O828        C834   1.262       .  A
O828       Cd831   2.498       .  S
C829        O837   1.264       .  A
C830        O835   1.265       .  A
C830        O833   1.265       .  A
Cd831       O838   2.503       .  S
Cd831       O837   2.506       .  S
Cd831       O836   2.494       .  S
Cd831       O832   2.438       .  S
Cd831       O835   2.439       .  S
Cd831       O833   2.487       .  S
C834        O838   1.264       .  A
O839        C842   1.279       .  A
O839       Cd844   2.471       .  S
C840        O849   1.268       .  A
C840        O845   1.278       .  A
O841        C847   1.276       .  A
O841       Cd844   2.431       .  S
C842        O850   1.269       .  A
C842        C855   1.465       .  S
C843        O848   1.276       .  A
C843        O846   1.270       .  A
C843        C889   1.479       .  S
Cd844       O851   2.394       .  S
Cd844       O850   2.380       .  S
Cd844      O1153   2.377   1_545  S
Cd844      O1149   2.474   1_545  S
Cd844      O1152   2.429   1_545  S
Cd844      O1150   2.396   1_545  S
O845      Cd1148   2.474       .  S
O846      Cd1148   2.396       .  S
C847        O851   1.270       .  A
C847        C904   1.480       .  S
O848      Cd1148   2.429       .  S
O849      Cd1148   2.377       .  S
O852        C855   1.266       .  A
O852       Cd857   2.436       .  S
C853        O862   1.264       .  A
C853        O858   1.262       .  A
O854        C860   1.265       .  A
O854       Cd857   2.437       .  S
C855        O863   1.265       .  A
C856        O861   1.262       .  A
C856        O859   1.265       .  A
Cd857       O864   2.487       .  S
Cd857       O863   2.493       .  S
Cd857       O862   2.508       .  S
Cd857       O858   2.501       .  S
Cd857       O861   2.494       .  S
Cd857       O859   2.507       .  S
C860        O864   1.265       .  A
C865        C866   1.402       .  A
C865        C870   1.411       .  A
C866        C867   1.394       .  A
C867        C868   1.409       .  A
C868        C869   1.401       .  A
C869        C870   1.400       .  A
C869        H873   1.084       .  S
C870        O874   1.372       .  S
O872        H876   0.992       .  S
O874        H875   0.992       .  S
C877        C882   1.409       .  A
C878        C879   1.399       .  A
C878        H883   1.083       .  S
C879        O884   1.371       .  S
C880        C881   1.403       .  A
C881        C882   1.394       .  A
C881        H885   1.084       .  S
C882        O886   1.372       .  S
O884        H888   0.992       .  S
O886        H887   0.992       .  S
C889        C890   1.402       .  A
C889        C894   1.413       .  A
C890        H895   1.084       .  S
C891        C892   1.413       .  A
C891        O896   1.372       .  S
C892        C893   1.403       .  A
C893        H897   1.083       .  S
C894       O1202   1.371       .  S
O898       C1198   1.371       .  S
C901        C902   1.402       .  A
C901       C1210   1.412       .  A
C902        C903   1.398       .  A
C902        H907   1.084       .  S
C903        C904   1.413       .  A
C903        O908   1.372       .  S
C904       C1209   1.403       .  A
C905       C1208   1.403       .  A
C905        C906   1.397       .  A
C905        H909   1.083       .  S
C906       C1205   1.412       .  A
C906        O910   1.372       .  S
O908        H912   0.992       .  S
O910        H911   0.992       .  S
O913        C916   1.278       .  A
C914        O923   1.269       .  A
C914        O919   1.279       .  A
C914        C927   1.464       .  S
O915        C921   1.277       .  A
C916        O924   1.269       .  A
C916        C979   1.465       .  S
C917        O922   1.277       .  A
C917        O920   1.271       .  A
C917       C1044   1.480       .  S
Cd918       O923   2.376   1_545  S
Cd918       O919   2.467   1_545  S
Cd918       O922   2.431   1_545  S
Cd918       O920   2.391   1_545  S
C921        O925   1.271       .  A
C921       C1053   1.478       .  S
O926        C929   1.262       .  A
O926       Cd931   2.500       .  S
C927        O936   1.265       .  A
C927        O932   1.266       .  A
O928        C934   1.262       .  A
O928       Cd931   2.498       .  S
C929        O937   1.264       .  A
C929        C981   1.476       .  S
C930        O935   1.266       .  A
C930        O933   1.265       .  A
C930        C940   1.465       .  S
Cd931       O938   2.508       .  S
Cd931       O937   2.509       .  S
Cd931       O936   2.491       .  S
Cd931       O932   2.432       .  S
Cd931       O935   2.430       .  S
Cd931       O933   2.500       .  S
C934        O938   1.264       .  A
C934        C956   1.476       .  S
O939        C942   1.278       .  A
C940        O949   1.266       .  A
C940        O945   1.278       .  A
O941        C947   1.273       .  A
O941       Cd944   2.417       .  S
C942        O950   1.266       .  A
C942        C960   1.466       .  S
C943        O948   1.274       .  A
C943        O946   1.270       .  A
C943       C1017   1.474       .  S
Cd944       O951   2.405       .  S
Cd944       O949   2.374       .  S
Cd944       O945   2.485       .  S
Cd944       O948   2.419       .  S
Cd944       O946   2.406       .  S
C947        O951   1.270       .  A
C947       C1029   1.474       .  S
O952        C955   1.265       .  A
O952       Cd957   2.432       .  S
C953        O962   1.264       .  A
C953        O958   1.262       .  A
C953       C1005   1.476       .  S
O954        C960   1.265       .  A
O954       Cd957   2.431       .  S
C955        O963   1.265       .  A
C955        C992   1.465       .  S
C956        O961   1.262       .  A
C956        O959   1.264       .  A
Cd957       O964   2.501       .  S
Cd957       O963   2.496       .  S
Cd957       O962   2.508       .  S
Cd957       O958   2.501       .  S
Cd957       O961   2.501       .  S
Cd957       O959   2.505       .  S
C960        O964   1.265       .  A
O965        C968   1.279       .  A
O965       Cd970   2.457       .  S
C966        O975   1.270       .  A
C966        O971   1.279       .  A
C966       C1012   1.464       .  S
O967        C973   1.277       .  A
O967      Cd1122   2.429       .  S
C968        O976   1.270       .  A
C968        C982   1.464       .  S
C969        O974   1.277       .  A
C969        O972   1.272       .  A
C969       C1032   1.469       .  S
Cd970      O1119   2.429   1_554  S
Cd970      O1129   2.372   1_554  S
Cd970       O976   2.383       .  S
Cd970       O974   2.427       .  S
Cd970       O972   2.376       .  S
C973        O977   1.271       .  A
C973       C1020   1.470       .  S
O977      Cd1122   2.372       .  S
O978        C981   1.262       .  A
O978       Cd983   2.499       .  S
C979        O988   1.265       .  A
C979        O984   1.266       .  A
O980        C986   1.262       .  A
O980       Cd983   2.498       .  S
C981        O989   1.264       .  A
C982        O987   1.265       .  A
C982        O985   1.265       .  A
Cd983       O990   2.503       .  S
Cd983       O989   2.506       .  S
Cd983       O988   2.494       .  S
Cd983       O984   2.438       .  S
Cd983       O987   2.439       .  S
Cd983       O985   2.487       .  S
C986        O990   1.264       .  A
C986       C1160   1.475   1_554  S
O991        C994   1.279       .  A
O991       Cd996   2.471       .  S
C992       O1001   1.268       .  A
C992        O997   1.278       .  A
O993        C999   1.276       .  A
O993       Cd996   2.431       .  S
C994       O1002   1.269       .  A
C994       C1007   1.465       .  S
C995       O1000   1.276       .  A
C995        O998   1.270       .  A
C995       C1041   1.479       .  S
Cd996      O1003   2.394       .  S
Cd996      O1002   2.380       .  S
C999       O1003   1.270       .  A
C999       C1056   1.480       .  S
O1004      C1007   1.266       .  A
O1004     Cd1009   2.436       .  S
C1005      O1014   1.264       .  A
C1005      O1010   1.262       .  A
O1006      C1012   1.265       .  A
O1006     Cd1009   2.437       .  S
C1007      O1015   1.265       .  A
C1008      O1013   1.262       .  A
C1008      O1011   1.265       .  A
C1008      C1138   1.475       .  S
Cd1009     O1016   2.487       .  S
Cd1009     O1015   2.493       .  S
Cd1009     O1014   2.508       .  S
Cd1009     O1010   2.501       .  S
Cd1009     O1013   2.494       .  S
Cd1009     O1011   2.507       .  S
C1012      O1016   1.265       .  A
C1017      C1018   1.402       .  A
C1017      C1022   1.411       .  A
C1018      C1019   1.394       .  A
C1019      C1020   1.409       .  A
C1020      C1021   1.401       .  A
C1021      C1022   1.400       .  A
C1021      H1025   1.084       .  S
C1022      O1026   1.372       .  S
O1024      H1028   0.992       .  S
O1026      H1027   0.992       .  S
C1029      C1034   1.409       .  A
C1030      C1031   1.399       .  A
C1030      H1035   1.083       .  S
C1031      O1036   1.371       .  S
C1032      C1033   1.403       .  A
C1033      C1034   1.394       .  A
C1033      H1037   1.084       .  S
C1034      O1038   1.372       .  S
O1036      H1040   0.992       .  S
O1038      H1039   0.992       .  S
C1041      C1042   1.402       .  A
C1041      C1046   1.413       .  A
C1042      C1195   1.398       .  A
C1042      H1047   1.084       .  S
C1043      C1194   1.398   1_554  A
C1043      C1044   1.413       .  A
C1043      O1048   1.372       .  S
C1044      C1045   1.403       .  A
C1045      C1198   1.397   1_554  A
C1045      H1049   1.083       .  S
C1046      C1197   1.397       .  A
O1048      H1204   0.992       .  S
O1050      H1203   0.992       .  S
H1051      O1202   0.992       .  S
H1052      O1200   0.992       .  S
C1053      C1054   1.402       .  A
C1054      C1055   1.398       .  A
C1054      H1059   1.084       .  S
C1055      C1056   1.413       .  A
C1055      O1060   1.372       .  S
C1057      C1058   1.397       .  A
C1057      H1061   1.083       .  S
C1058      O1062   1.372       .  S
O1060      H1064   0.992       .  S
O1062      H1063   0.992       .  S
O1065      C1068   1.278       .  A
C1066      O1075   1.269       .  A
C1066      O1071   1.279       .  A
C1066      C1079   1.464       .  S
O1067      C1073   1.277       .  A
C1068      O1076   1.269       .  A
C1068      C1131   1.465       .  S
C1069      O1074   1.277       .  A
C1069      O1072   1.271       .  A
C1069      C1196   1.480       .  S
Cd1070     O1075   2.376   1_545  S
Cd1070     O1071   2.467   1_545  S
Cd1070     O1074   2.431   1_545  S
Cd1070     O1072   2.391   1_545  S
C1073      O1077   1.271       .  A
C1073      C1205   1.478       .  S
O1078      C1081   1.262       .  A
O1078     Cd1083   2.500       .  S
C1079      O1088   1.265       .  A
C1079      O1084   1.266       .  A
O1080      C1086   1.262       .  A
O1080     Cd1083   2.498       .  S
C1081      O1089   1.264       .  A
C1081      C1133   1.476       .  S
C1082      O1087   1.266       .  A
C1082      O1085   1.265       .  A
C1082      C1092   1.465       .  S
Cd1083     O1090   2.508       .  S
Cd1083     O1089   2.509       .  S
Cd1083     O1088   2.491       .  S
Cd1083     O1084   2.432       .  S
Cd1083     O1087   2.430       .  S
Cd1083     O1085   2.500       .  S
C1086      O1090   1.264       .  A
C1086      C1108   1.476       .  S
O1091      C1094   1.278       .  A
C1092      O1101   1.266       .  A
C1092      O1097   1.278       .  A
O1093      C1099   1.273       .  A
O1093     Cd1096   2.417       .  S
C1094      O1102   1.266       .  A
C1094      C1112   1.466       .  S
C1095      O1100   1.274       .  A
C1095      O1098   1.270       .  A
C1095      C1169   1.474       .  S
Cd1096     O1103   2.405       .  S
Cd1096     O1101   2.374       .  S
Cd1096     O1097   2.485       .  S
Cd1096     O1100   2.419       .  S
Cd1096     O1098   2.406       .  S
C1099      O1103   1.270       .  A
C1099      C1181   1.474       .  S
O1104      C1107   1.265       .  A
O1104     Cd1109   2.432       .  S
C1105      O1114   1.264       .  A
C1105      O1110   1.262       .  A
C1105      C1157   1.476       .  S
O1106      C1112   1.265       .  A
O1106     Cd1109   2.431       .  S
C1107      O1115   1.265       .  A
C1107      C1144   1.465       .  S
C1108      O1113   1.262       .  A
C1108      O1111   1.264       .  A
Cd1109     O1116   2.501       .  S
Cd1109     O1115   2.496       .  S
Cd1109     O1114   2.508       .  S
Cd1109     O1110   2.501       .  S
Cd1109     O1113   2.501       .  S
Cd1109     O1111   2.505       .  S
C1112      O1116   1.265       .  A
O1117      C1120   1.279       .  A
O1117     Cd1122   2.457       .  S
C1118      O1127   1.270       .  A
C1118      O1123   1.279       .  A
C1118      C1164   1.464       .  S
O1119      C1125   1.277       .  A
C1120      O1128   1.270       .  A
C1120      C1134   1.464       .  S
C1121      O1126   1.277       .  A
C1121      O1124   1.272       .  A
C1121      C1184   1.469       .  S
Cd1122     O1128   2.383       .  S
Cd1122     O1126   2.427       .  S
Cd1122     O1124   2.376       .  S
C1125      O1129   1.271       .  A
C1125      C1172   1.470       .  S
O1130      C1133   1.262       .  A
O1130     Cd1135   2.499       .  S
C1131      O1140   1.265       .  A
C1131      O1136   1.266       .  A
O1132      C1138   1.262       .  A
O1132     Cd1135   2.498       .  S
C1133      O1141   1.264       .  A
C1134      O1139   1.265       .  A
C1134      O1137   1.265       .  A
Cd1135     O1142   2.503       .  S
Cd1135     O1141   2.506       .  S
Cd1135     O1140   2.494       .  S
Cd1135     O1136   2.438       .  S
Cd1135     O1139   2.439       .  S
Cd1135     O1137   2.487       .  S
C1138      O1142   1.264       .  A
O1143      C1146   1.279       .  A
O1143     Cd1148   2.471       .  S
C1144      O1153   1.268       .  A
C1144      O1149   1.278       .  A
O1145      C1151   1.276       .  A
O1145     Cd1148   2.431       .  S
C1146      O1154   1.269       .  A
C1146      C1159   1.465       .  S
C1147      O1152   1.276       .  A
C1147      O1150   1.270       .  A
C1147      C1193   1.479       .  S
Cd1148     O1155   2.394       .  S
Cd1148     O1154   2.380       .  S
C1151      O1155   1.270       .  A
C1151      C1208   1.480       .  S
O1156      C1159   1.266       .  A
O1156     Cd1161   2.436       .  S
C1157      O1166   1.264       .  A
C1157      O1162   1.262       .  A
O1158      C1164   1.265       .  A
O1158     Cd1161   2.437       .  S
C1159      O1167   1.265       .  A
C1160      O1165   1.262       .  A
C1160      O1163   1.265       .  A
Cd1161     O1168   2.487       .  S
Cd1161     O1167   2.493       .  S
Cd1161     O1166   2.508       .  S
Cd1161     O1162   2.501       .  S
Cd1161     O1165   2.494       .  S
Cd1161     O1163   2.507       .  S
C1164      O1168   1.265       .  A
C1169      C1170   1.402       .  A
C1169      C1174   1.411       .  A
C1170      C1171   1.394       .  A
C1171      C1172   1.409       .  A
C1172      C1173   1.401       .  A
C1173      C1174   1.400       .  A
C1173      H1177   1.084       .  S
C1174      O1178   1.372       .  S
O1176      H1180   0.992       .  S
O1178      H1179   0.992       .  S
C1181      C1186   1.409       .  A
C1182      C1183   1.399       .  A
C1182      H1187   1.083       .  S
C1183      O1188   1.371       .  S
C1184      C1185   1.403       .  A
C1185      C1186   1.394       .  A
C1185      H1189   1.084       .  S
C1186      O1190   1.372       .  S
O1188      H1192   0.992       .  S
O1190      H1191   0.992       .  S
C1193      C1194   1.402       .  A
C1193      C1198   1.413       .  A
C1194      H1199   1.084       .  S
C1195      C1196   1.413       .  A
C1195      O1200   1.372       .  S
C1196      C1197   1.403       .  A
C1197      H1201   1.083       .  S
C1205      C1206   1.402       .  A
C1206      C1207   1.398       .  A
C1206      H1211   1.084       .  S
C1207      C1208   1.413       .  A
C1207      O1212   1.372       .  S
C1209      C1210   1.397       .  A
C1209      H1213   1.083       .  S
C1210      O1214   1.372       .  S
O1212      H1216   0.992       .  S
O1214      H1215   0.992       .  S
