geometry optimzed in LAMMPS
_audit_creation_date              2020-11-30 
_audit_creation_method            'lammps2cif' 
_symmetry_space_group_name_H-M    'P1' 
_symmetry_Int_Tables_number       1 
_symmetry_cell_setting            triclinic 
loop_ 
_symmetry_equiv_pos_as_xyz 
  x,y,z 
_cell_length_a                    34.69061761 
_cell_length_b                    39.40623440733873 
_cell_length_c                    29.284169183645606 
_cell_angle_alpha                 90.44303906754092 
_cell_angle_beta                  89.95350883935961 
_cell_angle_gamma                 89.63502848076415 
loop_ 
_atom_site_label 
_atom_site_type_symbol 
_atom_site_fract_x 
_atom_site_fract_y 
_atom_site_fract_z 
_atom_site_charge 
C1          C  0.04132614  0.49768199  0.26985437     0.30400
C2          C  0.46152346  0.49986659  0.26797064     0.30400
C3          C  0.02087053  0.49868708  0.31615695    -0.05800
C4          C  0.02378716  0.03162872  0.24819773    -0.06600
C5          C  0.02082184  0.46814485  0.24496147    -0.06500
C6          C  0.47991695  0.49946325  0.31589388    -0.05800
C7          C  0.48341622  0.03186457  0.24652014    -0.06600
C8          C  0.48162612  0.46856726  0.24637109    -0.06500
C9          C  0.46909415  0.99465198  0.35907960    -0.31900
N10         N  0.00030577  0.99526023  0.38800614     0.14600
C11         C  0.03259776  0.99716582  0.36218766    -0.31900
H12         H  0.06180760  0.99661021  0.37520844     0.16600
C13         C  0.47231022  0.05915200  0.22058544    -0.30900
N14         N  0.50447959  0.07472981  0.20543874     0.13400
C15         C  0.03619946  0.05781983  0.22099934    -0.30800
C16         C  0.47053337  0.43889950  0.22507079    -0.31100
N17         N  0.50247042  0.42268956  0.20926750     0.13900
H18         H  0.44128144  0.43035980  0.21942805     0.16500
C19         C  0.03125778  0.44049616  0.21852083    -0.31100
H20         H  0.06001751  0.43396841  0.20703283     0.16500
H21         H  0.06571992  0.06317788  0.21116045     0.16500
H22         H  0.43966001  0.99308805  0.37113780     0.16600
H23         H  0.44315016  0.06586904  0.21083425     0.16500
C24         C  0.29079380  0.50343097  0.26927711     0.30400
C25         C  0.21142895  0.50300244  0.27141986     0.30400
C26         C  0.27199900  0.49739748  0.31636569    -0.05800
C27         C  0.27139125  0.03933991  0.25172121    -0.06600
C28         C  0.27101072  0.47537097  0.24041904    -0.06500
C29         C  0.23187023  0.49783783  0.31710320    -0.05800
C30         C  0.23104234  0.03864133  0.25248514    -0.06600
C31         C  0.23064465  0.47570380  0.24087631    -0.06500
C32         C  0.22024354  0.49474521  0.36171584    -0.31900
N33         N  0.25411343  0.99291964  0.38707769     0.14600
C34         C  0.28374898  0.49293439  0.36102818    -0.31900
H35         H  0.31315761  0.49160847  0.37331459     0.16600
C36         C  0.21841321  0.06293421  0.22232625    -0.30900
N37         N  0.24941423  0.07918072  0.20538363     0.13400
C38         C  0.28190273  0.06458625  0.22196158    -0.30800
C39         C  0.21851720  0.45050415  0.21143515    -0.31100
N40         N  0.25002027  0.43429797  0.19459003     0.13900
H41         H  0.18908439  0.44442613  0.20234019     0.16500
C42         C  0.28202961  0.44849828  0.21272185    -0.31100
H43         H  0.31100197  0.43921432  0.20642216     0.16500
H44         H  0.31078142  0.07023811  0.21060302     0.16500
H45         H  0.19088743  0.49621839  0.37425824     0.16600
H46         H  0.18901731  0.06705578  0.21110513     0.16500
C47         C  0.03785990  0.49688126  0.69953626     0.30400
C48         C  0.45843783  0.49667759  0.69932554     0.30400
C49         C  0.01802814  0.49591324  0.65248524    -0.05800
C50         C  0.01804736  0.46820738  0.72561349    -0.06600
C51         C  0.01829275  0.02736913  0.71985630    -0.06500
C52         C  0.47889578  0.49538925  0.65307177    -0.05800
C53         C  0.47783400  0.46784418  0.72592870    -0.06600
C54         C  0.47811618  0.02897052  0.71929961    -0.06500
C55         C  0.46758366  0.49561895  0.60815615    -0.31900
N56         N  0.99679492  0.49597520  0.58101455     0.14600
C57         C  0.02884041  0.49745743  0.60729089    -0.31900
H58         H  0.05790464  0.50035954  0.59407059     0.16600
C59         C  0.46597107  0.44276317  0.75502988    -0.30900
N60         N  0.49754892  0.42586773  0.77037861     0.13400
C61         C  0.02992344  0.44202098  0.75308917    -0.30800
C62         C  0.46681958  0.05666104  0.74536404    -0.31100
N63         N  0.49874357  0.07342184  0.75935005     0.13900
H64         H  0.43784274  0.06292038  0.75629029     0.16500
C65         C  0.02985730  0.05583437  0.74386895    -0.31100
H66         H  0.05918958  0.06360826  0.75097759     0.16500
H67         H  0.05942736  0.43497101  0.76081078     0.16500
H68         H  0.43826811  0.49518973  0.59550442     0.16600
H69         H  0.43674736  0.43835843  0.76601868     0.16500
C70         C  0.20857147  0.49894160  0.70150217     0.30400
C71         C  0.28802485  0.49866469  0.70036270     0.30400
C72         C  0.22782841  0.50098133  0.65388970    -0.05800
C73         C  0.22827849  0.02991392  0.72337882    -0.06600
C74         C  0.22844877  0.46776196  0.72209169    -0.06500
C75         C  0.26804240  0.50059804  0.65383347    -0.05800
C76         C  0.26850362  0.02849447  0.72443450    -0.06600
C77         C  0.26870409  0.46759049  0.72220142    -0.06500
C78         C  0.27982958  0.00085478  0.60730904    -0.31900
N79         N  0.24838084  0.00229172  0.58015056     0.14600
C80         C  0.21619400  0.00237143  0.60663721    -0.31900
H81         H  0.18708273  0.00346060  0.59354980     0.16600
C82         C  0.28076892  0.05504202  0.75132712    -0.30900
N83         N  0.24968135  0.07397186  0.76357305     0.13400
C84         C  0.21753629  0.05919148  0.74639084    -0.30800
C85         C  0.27990880  0.44190760  0.75125360    -0.31100
N86         N  0.24788921  0.42581695  0.76617418     0.13900
H87         H  0.30890730  0.43633213  0.76274094     0.16500
C88         C  0.21635761  0.44152855  0.74907268    -0.31100
H89         H  0.18686607  0.43569196  0.75822517     0.16500
H90         H  0.18846098  0.06842701  0.75195504     0.16500
H91         H  0.30937360  0.99958674  0.59546784     0.16600
H92         H  0.31003477  0.06002157  0.76203664     0.16500
Zn93       Zn  0.03134135  0.20675071  0.98104552     1.49700
Zn94       Zn  0.46929701  0.24724695  0.04181831     1.49400
Zn95       Zn  0.03095475  0.28747106  0.98611682     1.49100
Zn96       Zn  0.46843589  0.24926570  0.92999193     1.49500
O97         O  0.49982469  0.24755007  0.98531386    -1.83800
O98         O  0.02312218  0.17719596  0.03535380    -0.74400
O99         O  0.47775318  0.28914976  0.08210226    -0.74200
O100        O  0.08608455  0.27532478  0.98635680    -0.73700
O101        O  0.48084505  0.20529966  0.07884530    -0.74400
O102        O  0.08702832  0.21898173  0.97960505    -0.74000
O103        O  0.02045649  0.31622256  0.04067327    -0.74600
O104        O  0.47819370  0.29160583  0.89323839    -0.74000
O105        O  0.41356149  0.24668424  0.02470925    -0.74700
O106        O  0.02245856  0.31722782  0.93278556    -0.74100
O107        O  0.41335010  0.25031666  0.94855409    -0.74600
O108        O  0.47664462  0.20806165  0.88898108    -0.74500
O109        O  0.02034262  0.17854884  0.92541621    -0.74300
C110        C  0.50265147  0.17966813  0.07157401     0.77500
C111        C  0.49996175  0.31445181  0.07663897     0.78000
C112        C  0.10404159  0.24734031  0.98273839     0.76900
C113        C  0.50011557  0.31694276  0.90021252     0.77300
C114        C  0.39600631  0.24871960  0.98670142     0.78500
C115        C  0.49847431  0.18208339  0.89207716     0.77500
Zn116      Zn  0.28192264  0.29088250  0.98394137     1.49700
Zn117      Zn  0.28084797  0.21023221  0.98608781     1.49400
Zn118      Zn  0.21761395  0.25304603  0.03890555     1.49100
Zn119      Zn  0.21880499  0.24991216  0.92778406     1.49500
O120        O  0.24951655  0.25103564  0.98400973    -1.83800
O121        O  0.33736878  0.27788313  0.98341008    -0.74400
O122        O  0.26850950  0.18202707  0.04037825    -0.74200
O123        O  0.22512467  0.29618349  0.07505297    -0.73700
O124        O  0.33651653  0.22153768  0.98905497    -0.74400
O125        O  0.27274560  0.32101433  0.03820814    -0.74000
O126        O  0.22725545  0.21347144  0.08043118    -0.74600
O127        O  0.16321224  0.24717768  0.94473071    -0.74000
O128        O  0.27307525  0.18114217  0.93087786    -0.74700
O129        O  0.16265278  0.25079064  0.02086619    -0.74100
O130        O  0.23070135  0.20859811  0.88837841    -0.74600
O131        O  0.22597696  0.29263608  0.89054402    -0.74500
O132        O  0.27108187  0.31957431  0.92992760    -0.74300
C133        C  0.35445661  0.24942232  0.98662494     0.77500
C134        C  0.24748442  0.18668185  0.07546347     0.78000
C135        C  0.24872808  0.32052242  0.07099641     0.76900
C136        C  0.14551790  0.24813118  0.98273828     0.77300
C137        C  0.25252053  0.18298831  0.89513738     0.78500
C138        C  0.24791805  0.31812560  0.89646646     0.77500
C139        C  0.23805891  0.33979986  0.81784233    -0.19900
C140        C  0.24680588  0.34668433  0.86383095    -0.06500
C141        C  0.25455392  0.38066606  0.87754364     0.14400
C142        C  0.25477507  0.40630142  0.84458764    -0.20000
C143        C  0.24712243  0.39899058  0.79875608    -0.06500
C144        C  0.23825881  0.36563794  0.78517943     0.14400
C145        C  0.22994600  0.35746783  0.73591068    -0.23300
H146        H  0.23185598  0.31398457  0.80718933     0.15600
H147        H  0.26081459  0.43232519  0.85442734     0.15700
C148        C  0.26148214  0.39051452  0.92677826    -0.23300
H149        H  0.22431255  0.33000155  0.73062676     0.05900
H150        H  0.25503312  0.36456034  0.71450937     0.09100
H151        H  0.20414781  0.37184935  0.72445461     0.09100
H152        H  0.28900682  0.37935604  0.93899275     0.09100
H153        H  0.23723701  0.38167090  0.94834954     0.09100
H154        H  0.26362130  0.41844967  0.93124284     0.05900
C155        C  0.26478463  0.09552351  0.83948098    -0.19900
C156        C  0.25056164  0.10159528  0.79567765    -0.06500
C157        C  0.23826349  0.13447468  0.78381332     0.14400
C158        C  0.23984573  0.16061399  0.81665143    -0.20000
C159        C  0.25345960  0.15460537  0.86121052    -0.06500
C160        C  0.26630214  0.12133863  0.87257492     0.14400
C161        C  0.28069548  0.11208815  0.91953019    -0.23300
H162        H  0.27426026  0.07004637  0.84784734     0.15600
H163        H  0.23036017  0.18589986  0.80735593     0.15700
C164        C  0.22442380  0.14204867  0.73625131    -0.23300
H165        H  0.28760442  0.08460664  0.92216281     0.05900
H166        H  0.25824336  0.11800359  0.94549235     0.09100
H167        H  0.30755856  0.12612067  0.92737422     0.09100
H168        H  0.19796087  0.12740717  0.72869482     0.09100
H169        H  0.24717554  0.13505229  0.71112791     0.09100
H170        H  0.21747531  0.16939877  0.73204190     0.05900
C171        C  0.52215372  0.40071567  0.84049621    -0.19900
C172        C  0.49757794  0.39865209  0.80277188    -0.06500
C173        C  0.98073366  0.36806675  0.79167730     0.14400
C174        C  0.98197662  0.34175370  0.82362338    -0.20000
C175        C  0.50048790  0.34557361  0.86731080    -0.06500
C176        C  0.52412933  0.37476224  0.87287098     0.14400
C177        C  0.55174134  0.37930600  0.91225025    -0.23300
H178        H  0.53981388  0.42313469  0.84467716     0.15600
H179        H  0.96795553  0.31797727  0.81545948     0.15700
C180        C  0.96127295  0.36224181  0.74646322    -0.23300
H181        H  0.56774868  0.40357057  0.91014531     0.05900
H182        H  0.57348180  0.35850622  0.91206739     0.09100
H183        H  0.53566711  0.37971910  0.94503309     0.09100
H184        H  0.98131308  0.36836796  0.71814681     0.09100
H185        H  0.93520479  0.37842650  0.74435090     0.09100
H186        H  0.95206087  0.33547108  0.74213268     0.05900
C187        C  0.50976233  0.12195216  0.86907943    -0.19900
C188        C  0.49760064  0.15474951  0.85650560    -0.06500
C189        C  0.98505659  0.15928737  0.81030211     0.14400
C190        C  0.98562297  0.13168854  0.77945252    -0.20000
C191        C  0.49894030  0.10067667  0.79218268    -0.06500
C192        C  0.51005733  0.09488948  0.83769547     0.14400
C193        C  0.52083243  0.05978847  0.85344539    -0.23300
H194        H  0.51846650  0.11720070  0.90401421     0.15600
H195        H  0.97637097  0.13513125  0.74447721     0.15700
C196        C  0.97222387  0.19348928  0.79311423    -0.23300
H197        H  0.52717806  0.05931498  0.89059717     0.05900
H198        H  0.54688844  0.05061475  0.83505006     0.09100
H199        H  0.49661296  0.04213773  0.84671217     0.09100
H200        H  0.99541098  0.21237084  0.79866081     0.09100
H201        H  0.94558618  0.20177274  0.81111769     0.09100
H202        H  0.96563798  0.19279535  0.75600245     0.05900
C203        C  0.35212660  0.46779565  0.69208041    -0.19900
C204        C  0.33220933  0.49887753  0.69642904    -0.06500
C205        C  0.35359636  0.02946965  0.68647893     0.14400
C206        C  0.39395693  0.02817196  0.68999460    -0.20000
C207        C  0.41427131  0.49626245  0.69530403    -0.06500
C208        C  0.39246524  0.46625144  0.68825185     0.14400
C209        C  0.40951653  0.43298256  0.67202693    -0.23300
H210        H  0.33604788  0.44446746  0.68819143     0.15600
H211        H  0.40986544  0.05144466  0.68544400     0.15700
C212        C  0.33641612  0.06247600  0.66996977    -0.23300
H213        H  0.39577182  0.42563749  0.63919808     0.05900
H214        H  0.40336539  0.41291476  0.69716838     0.09100
H215        H  0.44082386  0.43394109  0.66528937     0.09100
H216        H  0.34153270  0.08294594  0.69546951     0.09100
H217        H  0.30531102  0.06102547  0.66225223     0.09100
H218        H  0.35068965  0.06970029  0.63752569     0.05900
C219        C  0.14493251  0.47858595  0.66924761    -0.19900
C220        C  0.16427133  0.49665857  0.70385914    -0.06500
C221        C  0.14193958  0.00525271  0.74218707     0.14400
C222        C  0.10147385  0.00508319  0.73963622    -0.20000
C223        C  0.08218277  0.49423621  0.70098032    -0.06500
C224        C  0.10467934  0.47479082  0.66949437     0.14400
C225        C  0.08893625  0.44604239  0.64086473    -0.23300
H226        H  0.16147984  0.46431682  0.64429257     0.15600
H227        H  0.08506506  0.01220091  0.76973910     0.15700
C228        C  0.15882099  0.00992545  0.78927967    -0.23300
H229        H  0.10469296  0.42230854  0.64941158     0.05900
H230        H  0.09353249  0.45105797  0.60402047     0.09100
H231        H  0.05817523  0.44081127  0.64755861     0.09100
H232        H  0.15207228  0.03576025  0.80251477     0.09100
H233        H  0.19019116  0.00521995  0.79087946     0.09100
H234        H  0.14559951  0.99126454  0.81272643     0.05900
C235        C  0.23444596  0.37518197  0.17820312    -0.19900
C236        C  0.24953599  0.40605702  0.16355568    -0.06500
C237        C  0.26383770  0.40902203  0.11879022     0.14400
C238        C  0.26308726  0.38069454  0.08956757    -0.20000
C239        C  0.24817576  0.34937180  0.10402423    -0.06500
C240        C  0.23368620  0.34664897  0.14921552     0.14400
C241        C  0.21835970  0.31382145  0.16787203    -0.23300
H242        H  0.22361247  0.37346567  0.21284245     0.15600
H243        H  0.27384296  0.38322169  0.05508077     0.15700
C244        C  0.27884475  0.44234966  0.10152062    -0.23300
H245        H  0.21056431  0.31617375  0.20456811     0.05900
H246        H  0.24060765  0.29354985  0.16465901     0.09100
H247        H  0.19191135  0.30633633  0.14916344     0.09100
H248        H  0.30440478  0.45022664  0.12161878     0.09100
H249        H  0.25603352  0.46214554  0.10465582     0.09100
H250        H  0.28763050  0.44059924  0.06509950     0.05900
C251        C  0.24879601  0.12581096  0.09484764    -0.19900
C252        C  0.24621494  0.15967638  0.11015878    -0.06500
C253        C  0.24355805  0.16658855  0.15762897     0.14400
C254        C  0.24479978  0.13944760  0.18837024    -0.20000
C255        C  0.24797923  0.10590947  0.17276627    -0.06500
C256        C  0.24928400  0.09884615  0.12569428     0.14400
C257        C  0.25097375  0.06282355  0.10832122    -0.23300
H258        H  0.25015849  0.12039227  0.05855460     0.15600
H259        H  0.24340085  0.14422270  0.22478606     0.15700
C260        C  0.24052300  0.20227093  0.17631112    -0.23300
H261        H  0.25155588  0.06166030  0.07040727     0.05900
H262        H  0.22521611  0.04882472  0.12024527     0.09100
H263        H  0.27733221  0.05005869  0.12131666     0.09100
H264        H  0.21315785  0.21422815  0.16492737     0.09100
H265        H  0.26533272  0.21750229  0.16437434     0.09100
H266        H  0.24059024  0.20273095  0.21424805     0.05900
C267        C  0.23430883  0.47160196  0.51146381    -0.19900
C268        C  0.24947037  0.00041914  0.53134969    -0.06500
C269        C  0.26641620  0.02645143  0.50552235     0.14400
C270        C  0.26875209  0.02283627  0.45797762    -0.20000
C271        C  0.25419962  0.99397807  0.43592493    -0.06500
C272        C  0.23548517  0.46789000  0.46376398     0.14400
C273        C  0.22013182  0.43612458  0.44172154    -0.23300
H274        H  0.22200477  0.45170664  0.53230468     0.15600
H275        H  0.28105624  0.04292375  0.43760652     0.10700
C276        C  0.28069134  0.05846902  0.52802520    -0.23300
H277        H  0.20945510  0.41792347  0.46754272     0.05900
H278        H  0.24336927  0.42344150  0.42171011     0.09100
H279        H  0.19900261  0.94214211  0.41539205     0.09100
H280        H  0.30525133  0.55248005  0.55125031     0.09100
H281        H  0.25683377  0.07073918  0.54747718     0.09100
H282        H  0.29140076  0.07689139  0.50252995     0.05900
C283        C  0.51299709  0.40160659  0.13207900    -0.19900
C284        C  0.50232095  0.39509602  0.17708398    -0.06500
C285        C  0.98441979  0.36344374  0.18609380     0.14400
C286        C  0.98461342  0.33742892  0.15294922    -0.20000
C287        C  0.50051777  0.34279608  0.11051605    -0.06500
C288        C  0.51206386  0.37617313  0.09846242     0.14400
C289        C  0.52225381  0.38595337  0.05019401    -0.23300
H290        H  0.52155346  0.42715985  0.12322536     0.15600
H291        H  0.97534096  0.31219421  0.16240071     0.15700
C292        C  0.97100308  0.35616270  0.23386666    -0.23300
H293        H  0.52742553  0.41363375  0.04708052     0.05900
H294        H  0.49821821  0.37937032  0.02679576     0.09100
H295        H  0.54914494  0.37285631  0.03920182     0.09100
H296        H  0.94534927  0.37201024  0.24215959     0.09100
H297        H  0.99438791  0.36193708  0.25852459     0.09100
H298        H  0.96285338  0.32912946  0.23788842     0.05900
C299        C  0.00831264  0.16062222  0.15193561    -0.19900
C300        C  0.50386390  0.15202564  0.10537982    -0.06500
C301        C  0.50481048  0.11733255  0.09212138     0.14400
C302        C  0.50490670  0.09229923  0.12591340    -0.20000
C303        C  0.50492976  0.10111063  0.17223976    -0.06500
C304        C  0.00931307  0.13523879  0.18527555     0.14400
C305        C  0.01403972  0.14457484  0.23483853    -0.23300
H306        H  0.01068556  0.18703771  0.16214132     0.15600
H307        H  0.50499043  0.06572067  0.11643452     0.15700
C308        C  0.50466434  0.10636123  0.04265826    -0.23300
H309        H  0.01655409  0.17245374  0.23978058     0.05900
H310        H  0.04053589  0.13239631  0.24850003     0.09100
H311        H  0.98873656  0.13568853  0.25453971     0.09100
H312        H  0.53157212  0.11462614  0.02565536     0.09100
H313        H  0.47932412  0.11749300  0.02498202     0.09100
H314        H  0.50310813  0.07831942  0.03897134     0.05900
C315        C  0.39753934  0.52132373  0.29923267    -0.19900
C316        C  0.41725633  0.50278337  0.26504598    -0.06500
C317        C  0.39645487  0.99821293  0.22422517     0.14400
C318        C  0.35598690  0.99913331  0.22676028    -0.20000
C319        C  0.33509232  0.50591803  0.26737320    -0.06500
C320        C  0.35717615  0.52446082  0.29975948     0.14400
C321        C  0.34036635  0.55045965  0.33238216    -0.23300
H322        H  0.41373284  0.53569355  0.32413849     0.15600
H323        H  0.33981929  0.99410777  0.19599448     0.15700
C324        C  0.41350718  0.99356975  0.17711998    -0.23300
H325        H  0.35385129  0.57543039  0.32585803     0.05900
H326        H  0.34679852  0.54324419  0.36815199     0.09100
H327        H  0.31140376  0.05766725  0.32839839     0.09100
H328        H  0.40587565  0.46277334  0.16618437     0.09100
H329        H  0.44500864  0.99735579  0.17579277     0.09100
H330        H  0.40082838  0.01279346  0.15391603     0.05900
C331        C  0.14881681  0.47051398  0.27702538    -0.19900
C332        C  0.16732671  0.50218288  0.27562553    -0.06500
C333        C  0.14550338  0.03439534  0.28675587     0.14400
C334        C  0.10519262  0.03204236  0.28323959    -0.20000
C335        C  0.08552382  0.49757136  0.27429894    -0.06500
C336        C  0.10849761  0.46791146  0.27979302     0.14400
C337        C  0.09281392  0.43416737  0.29468392    -0.23300
H338        H  0.16598289  0.44757901  0.27934935     0.15600
H339        H  0.08808707  0.05462705  0.28950456     0.15700
C340        C  0.16124062  0.06688297  0.30680025    -0.23300
H341        H  0.10774096  0.42624369  0.32645034     0.05900
H342        H  0.09842253  0.41455112  0.26806289     0.09100
H343        H  0.06179447  0.43505963  0.30325698     0.09100
H344        H  0.15682086  0.08811412  0.28265834     0.09100
H345        H  0.19200231  0.06506667  0.31641752     0.09100
H346        H  0.14557920  0.07299374  0.33895745     0.05900
C347        C  0.99929125  0.02536632  0.46100693    -0.19900
C348        C  0.99920284  0.99461530  0.43674961    -0.06500
C349        C  0.47989351  0.47013229  0.46170377     0.14400
C350        C  0.48085956  0.47120464  0.50952569    -0.20000
C351        C  0.99653392  0.49544016  0.53214232    -0.06500
C352        C  0.99787501  0.02579855  0.50882818     0.14400
C353        C  0.99768003  0.05901597  0.53446322    -0.23300
H354        H  0.00040390  0.04899589  0.44228024     0.15600
H355        H  0.46694509  0.45142103  0.52902025     0.15700
C356        C  0.46074671  0.44070805  0.43791346    -0.23300
H357        H  0.99867260  0.08096090  0.51091305     0.05900
H358        H  0.98268410  0.56398359  0.55464541     0.09100
H359        H  0.97101535  0.06118182  0.55530909     0.09100
H360        H  0.48141009  0.42826670  0.41402442     0.09100
H361        H  0.51174971  0.92315013  0.41409649     0.09100
H362        H  0.45085193  0.42136172  0.46261465     0.05900
C363        C  0.04239238  0.00047096  0.27112567     0.30400
C364        C  0.46264251  0.00132813  0.26694691     0.30400
C365        C  0.02155984  0.99959672  0.31724904    -0.05800
C366        C  0.02353247  0.52834363  0.24525083    -0.06600
C367        C  0.02289705  0.97124318  0.24430023    -0.06500
C368        C  0.48124288  0.99860634  0.31461664    -0.05800
C369        C  0.48192411  0.52973248  0.24536542    -0.06600
C370        C  0.48211674  0.97078043  0.24284426    -0.06500
C371        C  0.46750926  0.49687471  0.36044134    -0.31900
N372        N  0.00032202  0.49491828  0.38731829     0.14600
C373        C  0.03232598  0.49618882  0.36087191    -0.31900
H374        H  0.06173796  0.49543053  0.37323880     0.16600
C375        C  0.47047264  0.55678136  0.21916079    -0.30900
N376        N  0.50248619  0.57282727  0.20438816     0.13400
C377        C  0.03679262  0.55406333  0.21786694    -0.30800
C378        C  0.47038065  0.94183722  0.22036246    -0.31100
N379        N  0.50197902  0.92572861  0.20361307     0.13900
H380        H  0.44102740  0.93339677  0.21535151     0.16500
C381        C  0.03414616  0.94370540  0.21790249    -0.31100
H382        H  0.06325395  0.93717251  0.20740393     0.16500
H383        H  0.06642960  0.55887838  0.20835392     0.16500
H384        H  0.43801047  0.49586752  0.37222757     0.16600
H385        H  0.44123046  0.56336056  0.20964331     0.16500
C386        C  0.29211648  0.00724318  0.26861423     0.30400
C387        C  0.21271823  0.00626920  0.27140000     0.30400
C388        C  0.27361541  0.00099576  0.31570020    -0.05800
C389        C  0.27041453  0.53564386  0.25217580    -0.06600
C390        C  0.27242750  0.97905138  0.23994340    -0.06500
C391        C  0.23349217  0.00116291  0.31675871    -0.05800
C392        C  0.23012467  0.53526376  0.25255448    -0.06600
C393        C  0.23204474  0.97901535  0.24078035    -0.06500
C394        C  0.22212824  0.99651266  0.36109155    -0.31900
N395        N  0.25205514  0.49183231  0.38823074     0.14600
C396        C  0.28566223  0.99520663  0.35987348    -0.31900
H397        H  0.31516249  0.99350245  0.37187754     0.16600
C398        C  0.21797779  0.56032293  0.22316505    -0.30900
N399        N  0.24932207  0.57671522  0.20717739     0.13400
C400        C  0.28148676  0.56150327  0.22367617    -0.30800
C401        C  0.22011473  0.95332812  0.21198159    -0.31100
N402        N  0.25174891  0.93737903  0.19488971     0.13900
H403        H  0.19072624  0.94677437  0.20346819     0.16500
C404        C  0.28367428  0.95213044  0.21246880    -0.31100
H405        H  0.31277053  0.94324087  0.20596019     0.16500
H406        H  0.31056704  0.56723787  0.21308766     0.16500
H407        H  0.19281700  0.99714418  0.37388472     0.16600
H408        H  0.18871825  0.56499154  0.21193463     0.16500
C409        C  0.03765146  0.99498498  0.69957263     0.30400
C410        C  0.45825393  0.99752321  0.69805081     0.30400
C411        C  0.01784582  0.99332195  0.65258107    -0.05800
C412        C  0.01774640  0.96675577  0.72656967    -0.06600
C413        C  0.01847280  0.52888885  0.72089886    -0.06500
C414        C  0.47829492  0.99460241  0.65165999    -0.05800
C415        C  0.47702487  0.96902434  0.72585980    -0.06600
C416        C  0.47720299  0.52787264  0.72239040    -0.06500
C417        C  0.46629821  0.99441139  0.60700737    -0.31900
N418        N  0.99674302  0.99435841  0.58118581     0.14600
C419        C  0.02874486  0.99570779  0.60750052    -0.31900
H420        H  0.05774458  0.99920595  0.59445104     0.16600
C421        C  0.46466339  0.94453284  0.75570090    -0.30900
N422        N  0.49600952  0.92751314  0.77154535     0.13400
C423        C  0.02925743  0.94166124  0.75610640    -0.30800
C424        C  0.46466241  0.55511050  0.74850204    -0.31100
N425        N  0.49583924  0.57268813  0.76290112     0.13900
H426        H  0.43535429  0.56067975  0.75882080     0.16500
C427        C  0.03001745  0.55724246  0.74530289    -0.31100
H428        H  0.05933036  0.56488632  0.75259481     0.16500
H429        H  0.05869943  0.93455899  0.76395245     0.16500
H430        H  0.43680549  0.99405221  0.59504440     0.16600
H431        H  0.43533862  0.94035400  0.76639670     0.16500
C432        C  0.20824742  0.99957886  0.69976368     0.30400
C433        C  0.28769723  0.99899940  0.69803068     0.30400
C434        C  0.22735434  0.00077206  0.65194152    -0.05800
C435        C  0.22843978  0.52882597  0.72641097    -0.06600
C436        C  0.22815821  0.96872160  0.72129784    -0.06500
C437        C  0.26759337  0.00028912  0.65174665    -0.05800
C438        C  0.26869076  0.52763549  0.72761320    -0.06600
C439        C  0.26829426  0.96817535  0.72053077    -0.06500
C440        C  0.28024990  0.50130471  0.60921425    -0.31900
N441        N  0.24875549  0.50267828  0.58197082     0.14600
C442        C  0.21667441  0.50265369  0.60859341    -0.31900
H443        H  0.18750509  0.50354122  0.59550740     0.16600
C444        C  0.28066499  0.55329873  0.75631639    -0.30900
N445        N  0.24926576  0.57133030  0.76986392     0.13400
C446        C  0.21735459  0.55709436  0.75134661    -0.30800
C447        C  0.27955767  0.94082325  0.74655742    -0.31100
N448        N  0.24767131  0.92457409  0.76208633     0.13900
H449        H  0.30886375  0.93410160  0.75568575     0.16500
C450        C  0.21614148  0.94193868  0.74748199    -0.31100
H451        H  0.18687605  0.93738651  0.75814631     0.16500
H452        H  0.18826238  0.56611239  0.75707165     0.16500
H453        H  0.30976243  0.49995396  0.59735467     0.16600
H454        H  0.30990526  0.55829412  0.76719203     0.16500
Zn455      Zn  0.03399871  0.70819850  0.98284276     1.49700
Zn456      Zn  0.47070511  0.74737548  0.04329457     1.49400
Zn457      Zn  0.03256791  0.78911356  0.99123261     1.49100
Zn458      Zn  0.46878634  0.75029383  0.93152920     1.49500
O459        O  0.50078674  0.74802746  0.98639893    -1.83800
O460        O  0.02697274  0.67828463  0.03692466    -0.74400
O461        O  0.47917512  0.78932241  0.08266752    -0.74200
O462        O  0.08807360  0.77748518  0.99252685    -0.73700
O463        O  0.48206385  0.70571764  0.08092448    -0.74400
O464        O  0.08923586  0.72153189  0.98042926    -0.74000
O465        O  0.02002362  0.81838371  0.04477889    -0.74600
O466        O  0.47800449  0.79280135  0.89441968    -0.74000
O467        O  0.41484391  0.74658932  0.02707248    -0.74700
O468        O  0.02410602  0.81892222  0.93837501    -0.74100
O469        O  0.41399599  0.75148512  0.95109428    -0.74600
O470        O  0.47588324  0.70877629  0.89084169    -0.74500
O471        O  0.02239026  0.67963845  0.92727185    -0.74300
C472        C  0.50323176  0.67977790  0.07321803     0.77500
C473        C  0.50029425  0.81515548  0.07618019     0.78000
C474        C  0.10612280  0.74975000  0.98618194     0.76900
C475        C  0.50082830  0.81766954  0.90032675     0.77300
C476        C  0.39697638  0.74920280  0.98936044     0.78500
C477        C  0.49709182  0.68239931  0.89398160     0.77500
Zn478      Zn  0.28286858  0.79139429  0.98505982     1.49700
Zn479      Zn  0.28216258  0.70984203  0.98999089     1.49400
Zn480      Zn  0.21995795  0.75358020  0.04260791     1.49100
Zn481      Zn  0.22059304  0.74942732  0.93021849     1.49500
O482        O  0.25106822  0.75104947  0.98685618    -1.83800
O483        O  0.33821319  0.77805439  0.98569749    -0.74400
O484        O  0.26987719  0.68203803  0.04477706    -0.74200
O485        O  0.22778166  0.79768641  0.07716030    -0.73700
O486        O  0.33772776  0.72170148  0.99277168    -0.74400
O487        O  0.27305399  0.82356434  0.03768390    -0.74000
O488        O  0.22937749  0.71375599  0.08550110    -0.74600
O489        O  0.16509596  0.74936888  0.94782429    -0.74000
O490        O  0.27394135  0.67909683  0.93605999    -0.74700
O491        O  0.16493319  0.75205912  0.02414537    -0.74100
O492        O  0.23026909  0.70591219  0.89446713    -0.74600
O493        O  0.22975734  0.79019999  0.88857664    -0.74500
O494        O  0.27311819  0.81813288  0.92872419    -0.74300
C495        C  0.35544391  0.74969237  0.98966521     0.77500
C496        C  0.24923079  0.68668940  0.08014228     0.78000
C497        C  0.24995013  0.82291039  0.07143051     0.76900
C498        C  0.14760699  0.75036649  0.98599280     0.77300
C499        C  0.25200456  0.68026267  0.90139334     0.78500
C500        C  0.25182274  0.81574354  0.89367877     0.77500
C501        C  0.22650027  0.84206451  0.82186562    -0.19900
C502        C  0.25214430  0.84365823  0.85912920    -0.06500
C503        C  0.27672798  0.87240320  0.86297966     0.14400
C504        C  0.27394692  0.89847321  0.83085337    -0.20000
C505        C  0.24797924  0.89708076  0.79438867    -0.06500
C506        C  0.22417916  0.86823854  0.78945769     0.14400
C507        C  0.19735740  0.86416461  0.74934724    -0.23300
H508        H  0.20786189  0.82025243  0.81805624     0.15600
H509        H  0.29218190  0.92060463  0.83438783     0.15700
C510        C  0.30637559  0.87639982  0.90034596    -0.23300
H511        H  0.18458998  0.83839775  0.74807223     0.05900
H512        H  0.21333633  0.86807191  0.71696209     0.09100
H513        H  0.17308843  0.88245881  0.75189955     0.09100
H514        H  0.32700857  0.85474700  0.89932010     0.09100
H515        H  0.29195821  0.87802525  0.93415200     0.09100
H516        H  0.32350350  0.89992836  0.89648108     0.05900
C517        C  0.25987081  0.59166111  0.84773457    -0.19900
C518        C  0.24949882  0.59854692  0.80258600    -0.06500
C519        C  0.23983053  0.63187481  0.78993472     0.14400
C520        C  0.24103961  0.65793357  0.82283005    -0.20000
C521        C  0.25167383  0.65139280  0.86831476    -0.06500
C522        C  0.26081180  0.61751012  0.88100219     0.14400
C523        C  0.27034146  0.60786977  0.92949556    -0.23300
H524        H  0.26685910  0.56578232  0.85686568     0.15600
H525        H  0.23398091  0.68360930  0.81277837     0.15700
C526        C  0.22914549  0.63993776  0.74141205    -0.23300
H527        H  0.27401679  0.58000623  0.93321626     0.05900
H528        H  0.24664842  0.61606212  0.95269654     0.09100
H529        H  0.29779840  0.61980839  0.94021306     0.09100
H530        H  0.20258285  0.62612747  0.73167442     0.09100
H531        H  0.25299633  0.63219550  0.71817452     0.09100
H532        H  0.22361875  0.66748355  0.73678392     0.05900
C533        C  0.51973547  0.90291946  0.84239673    -0.19900
C534        C  0.49588045  0.90042519  0.80412868    -0.06500
C535        C  0.97246198  0.87273277  0.80412771     0.14400
C536        C  0.97502908  0.84644896  0.83581148    -0.20000
C537        C  0.50050365  0.84658465  0.86760658    -0.06500
C538        C  0.52252846  0.87665270  0.87424043     0.14400
C539        C  0.54907411  0.88187950  0.91440908    -0.23300
H540        H  0.53639731  0.92593354  0.84727121     0.15600
H541        H  0.95558675  0.82516029  0.83241695     0.15700
C542        C  0.94395411  0.86927498  0.76570079    -0.23300
H543        H  0.56348756  0.90697976  0.91352823     0.05900
H544        H  0.57211516  0.86220895  0.91423942     0.09100
H545        H  0.53231803  0.88089472  0.94655786     0.09100
H546        H  0.95828796  0.87401251  0.73247151     0.09100
H547        H  0.91963735  0.88714244  0.77123552     0.09100
H548        H  0.93137215  0.84343890  0.76407762     0.05900
C549        C  0.50692827  0.62189480  0.87198552    -0.19900
C550        C  0.49480955  0.65463634  0.85908341    -0.06500
C551        C  0.98648409  0.66086938  0.81232737     0.14400
C552        C  0.98707015  0.63344134  0.78110195    -0.20000
C553        C  0.49495240  0.59995596  0.79570303    -0.06500
C554        C  0.50666626  0.59455757  0.84106501     0.14400
C555        C  0.51773691  0.55960064  0.85710434    -0.23300
H556        H  0.51630577  0.61745426  0.90672778     0.15600
H557        H  0.97870039  0.63730039  0.74590694     0.15700
C558        C  0.97403789  0.69527769  0.79548813    -0.23300
H559        H  0.52458054  0.55942592  0.89412953     0.05900
H560        H  0.54355765  0.55030342  0.83835344     0.09100
H561        H  0.49345835  0.54187047  0.85107870     0.09100
H562        H  0.99731161  0.71399453  0.80147357     0.09100
H563        H  0.94736958  0.70356932  0.81343959     0.09100
H564        H  0.96760220  0.69488220  0.75833113     0.05900
C565        C  0.35203597  0.96853393  0.68918637    -0.19900
C566        C  0.33192713  0.99943677  0.69401104    -0.06500
C567        C  0.35393232  0.52877135  0.68831915     0.14400
C568        C  0.39432592  0.52719500  0.69048015    -0.20000
C569        C  0.41405122  0.99726188  0.69423990    -0.06500
C570        C  0.39243970  0.96721045  0.68619676     0.14400
C571        C  0.40985896  0.93397204  0.67030754    -0.23300
H572        H  0.33610751  0.94524103  0.68436736     0.15600
H573        H  0.41034571  0.55032420  0.68527712     0.15700
C574        C  0.33664038  0.56216852  0.67349545    -0.23300
H575        H  0.39682017  0.92671544  0.63703435     0.05900
H576        H  0.40324592  0.91384808  0.69523727     0.09100
H577        H  0.44129200  0.93481176  0.66458143     0.09100
H578        H  0.34261167  0.58208397  0.69951506     0.09100
H579        H  0.30533359  0.56114650  0.66693611     0.09100
H580        H  0.35011089  0.56987539  0.64077729     0.05900
C581        C  0.14474218  0.97824201  0.66845011    -0.19900
C582        C  0.16398459  0.99713468  0.70239663    -0.06500
C583        C  0.14203384  0.50447203  0.74359294     0.14400
C584        C  0.10161147  0.50561405  0.74027148    -0.20000
C585        C  0.08197614  0.99270170  0.70097438    -0.06500
C586        C  0.10462409  0.97356813  0.66939212     0.14400
C587        C  0.08919962  0.94441340  0.64127146    -0.23300
H588        H  0.16136848  0.96408874  0.64343852     0.15600
H589        H  0.08507439  0.51272196  0.77029607     0.15700
C590        C  0.15846793  0.50711541  0.79119101    -0.23300
H591        H  0.10568345  0.92101244  0.64962074     0.05900
H592        H  0.09307638  0.94940658  0.60430893     0.09100
H593        H  0.05868036  0.93864831  0.64866323     0.09100
H594        H  0.15200053  0.53248178  0.80615020     0.09100
H595        H  0.18976534  0.50202749  0.79289679     0.09100
H596        H  0.14466478  0.48773503  0.81306851     0.05900
C597        C  0.23515832  0.87851482  0.17810789    -0.19900
C598        C  0.25135669  0.90903368  0.16389653    -0.06500
C599        C  0.26597108  0.91175923  0.11921413     0.14400
C600        C  0.26493841  0.88336461  0.08993699    -0.20000
C601        C  0.24911978  0.85225077  0.10409152    -0.06500
C602        C  0.23359409  0.85009871  0.14894183     0.14400
C603        C  0.21568892  0.81812112  0.16698758    -0.23300
H604        H  0.22373525  0.87705788  0.21253714     0.15600
H605        H  0.27623747  0.88568056  0.05565444     0.15700
C606        C  0.28143063  0.94497245  0.10205591    -0.23300
H607        H  0.20664761  0.82097698  0.20322385     0.05900
H608        H  0.23679146  0.79685351  0.16512235     0.09100
H609        H  0.18952453  0.81182688  0.14693231     0.09100
H610        H  0.30724316  0.95245422  0.12196943     0.09100
H611        H  0.25896708  0.96505531  0.10553597     0.09100
H612        H  0.28993762  0.94326197  0.06554837     0.05900
C613        C  0.24731154  0.62541933  0.09802634    -0.19900
C614        C  0.24784835  0.65913110  0.11431158    -0.06500
C615        C  0.24887778  0.66524028  0.16201717     0.14400
C616        C  0.24906945  0.63752366  0.19198213    -0.20000
C617        C  0.24858729  0.60411816  0.17539546    -0.06500
C618        C  0.24769229  0.59788398  0.12808834     0.14400
C619        C  0.24756094  0.56212461  0.10962802    -0.23300
H620        H  0.24663510  0.62059249  0.06157161     0.15600
H621        H  0.25003919  0.64175085  0.22852464     0.15700
C622        C  0.25160093  0.70062514  0.18152429    -0.23300
H623        H  0.24703958  0.56158487  0.07169881     0.05900
H624        H  0.22171618  0.54859247  0.12221587     0.09100
H625        H  0.27385733  0.54846411  0.12114865     0.09100
H626        H  0.22541802  0.71547254  0.17268607     0.09100
H627        H  0.27750043  0.71338325  0.16767074     0.09100
H628        H  0.25406510  0.70042598  0.21935206     0.05900
C629        C  0.23521358  0.97141063  0.50934740    -0.19900
C630        C  0.24942109  0.50046399  0.53303531    -0.06500
C631        C  0.26581133  0.52638520  0.50647793     0.14400
C632        C  0.26709972  0.52264187  0.45876790    -0.20000
C633        C  0.25202072  0.49372906  0.43720621    -0.06500
C634        C  0.23745728  0.96784483  0.46173390     0.14400
C635        C  0.22296155  0.93600657  0.43903167    -0.23300
H636        H  0.22280028  0.95135503  0.52974561     0.15600
H637        H  0.27921063  0.54256408  0.43796652     0.10700
C638        C  0.28062735  0.55839619  0.52846265    -0.23300
H639        H  0.21205778  0.91757837  0.46442166     0.05900
H640        H  0.24674989  0.92365828  0.41955854     0.09100
H641        H  0.19580278  0.44243269  0.41869745     0.09100
H642        H  0.30477204  0.05260972  0.55162047     0.09100
H643        H  0.25726033  0.57067196  0.54874191     0.09100
H644        H  0.29069762  0.57681274  0.50260594     0.05900
C645        C  0.49952968  0.90438847  0.12574178    -0.19900
C646        C  0.50123552  0.89770917  0.17239821    -0.06500
C647        C  0.01032622  0.86500183  0.18852150     0.14400
C648        C  0.00733623  0.83794591  0.15724026    -0.20000
C649        C  0.49947127  0.84386323  0.10885736    -0.06500
C650        C  0.49864086  0.87794359  0.09362170     0.14400
C651        C  0.49585387  0.88676176  0.04372889    -0.23300
H652        H  0.49892017  0.93057486  0.11463330     0.15600
H653        H  0.01516007  0.81240530  0.16768740     0.15700
C654        C  0.02335725  0.85848456  0.23662777    -0.23300
H655        H  0.49263214  0.91453471  0.03855935     0.05900
H656        H  0.47045124  0.87414121  0.02819638     0.09100
H657        H  0.52251128  0.87859051  0.02583983     0.09100
H658        H  0.00065770  0.86693309  0.26100025     0.09100
H659        H  0.05024293  0.87268415  0.24365469     0.09100
H660        H  0.02921756  0.83109245  0.24239392     0.05900
C661        C  0.00742707  0.65881837  0.15248362    -0.19900
C662        C  0.50370511  0.65169947  0.10648334    -0.06500
C663        C  0.50342790  0.61719049  0.09233545     0.14400
C664        C  0.50271746  0.59166197  0.12542590    -0.20000
C665        C  0.50288797  0.59974416  0.17196120    -0.06500
C666        C  0.00801389  0.63282757  0.18494556     0.14400
C667        C  0.00944776  0.64133283  0.23506276    -0.23300
H668        H  0.00693224  0.68507422  0.16380174     0.15600
H669        H  0.50213684  0.56522967  0.11521432     0.15700
C670        C  0.50272319  0.60694783  0.04260702    -0.23300
H671        H  0.00997832  0.66918545  0.24113608     0.05900
H672        H  0.03590483  0.63013247  0.25028021     0.09100
H673        H  0.98378290  0.63084166  0.25249444     0.09100
H674        H  0.52985375  0.61470583  0.02565982     0.09100
H675        H  0.47771207  0.61902413  0.02538349     0.09100
H676        H  0.50014248  0.57902884  0.03819212     0.05900
C677        C  0.39915722  0.02284236  0.29944932    -0.19900
C678        C  0.41844750  0.00495273  0.26430308    -0.06500
C679        C  0.39543080  0.49445165  0.22543645     0.14400
C680        C  0.35492701  0.49478272  0.22795430    -0.20000
C681        C  0.33641853  0.00966678  0.26657650    -0.06500
C682        C  0.35889375  0.02706224  0.29973538     0.14400
C683        C  0.34265021  0.05304994  0.33275031    -0.23300
H684        H  0.41570649  0.03590395  0.32537838     0.15600
H685        H  0.33902294  0.48906465  0.19735223     0.15700
C686        C  0.41265858  0.48872926  0.17862500    -0.23300
H687        H  0.35702211  0.07774682  0.32696062     0.05900
H688        H  0.34848813  0.04525957  0.36843662     0.09100
H689        H  0.30896091  0.55429900  0.32846626     0.09100
H690        H  0.40634903  0.96802551  0.16345890     0.09100
H691        H  0.44413691  0.49274507  0.17728121     0.09100
H692        H  0.39980166  0.50718411  0.15446197     0.05900
C693        C  0.15010724  0.97378972  0.27815223    -0.19900
C694        C  0.16857203  0.00543621  0.27620157    -0.06500
C695        C  0.14430357  0.53108798  0.28627118     0.14400
C696        C  0.10405948  0.52881244  0.28232095    -0.20000
C697        C  0.08665229  0.00074215  0.27575498    -0.06500
C698        C  0.10978880  0.97115575  0.28131261     0.14400
C699        C  0.09421658  0.93732193  0.29600066    -0.23300
H700        H  0.16735857  0.95086172  0.28036606     0.15600
H701        H  0.08696603  0.55136795  0.28859352     0.15700
C702        C  0.15996723  0.56338685  0.30691756    -0.23300
H703        H  0.10875899  0.92958446  0.32808963     0.05900
H704        H  0.10045901  0.91772805  0.26955632     0.09100
H705        H  0.06303270  0.93790151  0.30375146     0.09100
H706        H  0.15566865  0.58482929  0.28309263     0.09100
H707        H  0.19069896  0.56148079  0.31666170     0.09100
H708        H  0.14416337  0.56921449  0.33906209     0.05900
C709        C  0.98104219  0.52115902  0.45948813    -0.19900
C710        C  0.99955668  0.49444674  0.43622504    -0.06500
C711        C  0.51626395  0.96564051  0.46029455     0.14400
C712        C  0.51538313  0.96710262  0.50817954    -0.20000
C713        C  0.99647200  0.99485970  0.53242385    -0.06500
C714        C  0.97957436  0.52209508  0.50727764     0.14400
C715        C  0.96141811  0.55213406  0.53121212    -0.23300
H716        H  0.96828548  0.54159133  0.43998342     0.15600
H717        H  0.52791747  0.94673416  0.52794155     0.15700
C718        C  0.53363146  0.93514084  0.43656881    -0.23300
H719        H  0.95168546  0.57169734  0.50659903     0.05900
H720        H  0.02313799  0.06034598  0.55732880     0.09100
H721        H  0.93588625  0.54402140  0.55102360     0.09100
H722        H  0.55878573  0.94274205  0.41573505     0.09100
H723        H  0.43507548  0.44952104  0.41879541     0.09100
H724        H  0.54372287  0.91586036  0.46140061     0.05900
C725        C  0.54110552  0.49920660  0.27114251     0.30400
C726        C  0.96189166  0.50096098  0.26764643     0.30400
C727        C  0.52014719  0.49945551  0.31718453    -0.05800
C728        C  0.52359321  0.03101915  0.24727879    -0.06600
C729        C  0.52198640  0.46905633  0.24596993    -0.06500
C730        C  0.98066871  0.49993543  0.31543410    -0.05800
C731        C  0.98359004  0.03237497  0.24710081    -0.06600
C732        C  0.98046385  0.46901176  0.24582298    -0.06500
C733        C  0.96897755  0.99634022  0.36051418    -0.31900
N734        N  0.50057109  0.99264211  0.38636753     0.14600
C735        C  0.53271340  0.99485271  0.36026389    -0.31900
H736        H  0.56200471  0.99464167  0.37294714     0.16600
C737        C  0.97263633  0.05919910  0.22018248    -0.30900
N738        N  0.00491052  0.07464594  0.20500742     0.13400
C739        C  0.53588330  0.05755691  0.22056537    -0.30800
C740        C  0.96786656  0.44018392  0.22363176    -0.31100
N741        N  0.99895363  0.42325240  0.20684574     0.13900
H742        H  0.93823012  0.43286041  0.21788862     0.16500
C743        C  0.53387555  0.44123946  0.22071094    -0.31100
H744        H  0.56305252  0.43535956  0.21003551     0.16500
H745        H  0.56525148  0.06288446  0.21044533     0.16500
H746        H  0.93951905  0.99437214  0.37250003     0.16600
H747        H  0.94354210  0.06575982  0.21002690     0.16500
C748        C  0.79133949  0.50613479  0.26961006     0.30400
C749        C  0.71184459  0.50511756  0.27171243     0.30400
C750        C  0.77255968  0.50054869  0.31668681    -0.05800
C751        C  0.77141104  0.03613590  0.25204845    -0.06600
C752        C  0.77185954  0.47755980  0.24135307    -0.06500
C753        C  0.73240087  0.50072406  0.31744985    -0.05800
C754        C  0.73119398  0.03536694  0.25207388    -0.06600
C755        C  0.73145761  0.47742659  0.24190040    -0.06500
C756        C  0.72088007  0.49707072  0.36195859    -0.31900
N757        N  0.75252815  0.99296068  0.38957252     0.14600
C758        C  0.78442003  0.49563093  0.36111515    -0.31900
H759        H  0.81387281  0.49397336  0.37328818     0.16600
C760        C  0.71880492  0.06054014  0.22304314    -0.30900
N761        N  0.74997540  0.07729934  0.20729601     0.13400
C762        C  0.78230034  0.06229965  0.22387321    -0.30800
C763        C  0.71982719  0.45157387  0.21310425    -0.31100
N764        N  0.75161662  0.43569740  0.19612887     0.13900
H765        H  0.69048471  0.44496415  0.20440357     0.16500
C766        C  0.78337173  0.45065202  0.21393059    -0.31100
H767        H  0.81255938  0.44197842  0.20759010     0.16500
H768        H  0.81136937  0.06849575  0.21372717     0.16500
H769        H  0.69151289  0.49793026  0.37456705     0.16600
H770        H  0.68947997  0.06509210  0.21189081     0.16500
C771        C  0.53790817  0.49672918  0.70129681     0.30400
C772        C  0.95842421  0.49751733  0.69974804     0.30400
C773        C  0.51899815  0.49623258  0.65386610    -0.05800
C774        C  0.51796459  0.46741585  0.72594238    -0.06600
C775        C  0.51859060  0.02836424  0.71935249    -0.06500
C776        C  0.97790851  0.49532016  0.65299044    -0.05800
C777        C  0.97792507  0.46884825  0.72653999    -0.06600
C778        C  0.97786049  0.02750575  0.72046157    -0.06500
C779        C  0.96540786  0.49473360  0.60849367    -0.31900
N780        N  0.49964008  0.49748017  0.58180398     0.14600
C781        C  0.53101211  0.49823491  0.60927734    -0.31900
H782        H  0.56055056  0.49993717  0.59749017     0.16600
C783        C  0.96635753  0.44346285  0.75542129    -0.30900
N784        N  0.99818782  0.42678122  0.77036581     0.13400
C785        C  0.52949174  0.44113407  0.75345280    -0.30800
C786        C  0.96638050  0.05485744  0.74699608    -0.31100
N787        N  0.99816057  0.07196498  0.76057308     0.13900
H788        H  0.93737107  0.06071013  0.75835593     0.16500
C789        C  0.53036625  0.05680211  0.74328611    -0.31100
H790        H  0.55973026  0.06417969  0.75083369     0.16500
H791        H  0.55892954  0.43426002  0.76173499     0.16500
H792        H  0.93583319  0.49371950  0.59697090     0.16600
H793        H  0.93712835  0.43811206  0.76594063     0.16500
C794        C  0.70868344  0.50104356  0.70151411     0.30400
C795        C  0.78808903  0.49986492  0.69973570     0.30400
C796        C  0.72779121  0.50155118  0.65363015    -0.05800
C797        C  0.72796481  0.02811785  0.72556512    -0.06600
C798        C  0.72835544  0.47031188  0.72368560    -0.06500
C799        C  0.76802314  0.50074887  0.65342522    -0.05800
C800        C  0.76824975  0.02736092  0.72680468    -0.06600
C801        C  0.76847025  0.46945901  0.72276275    -0.06500
C802        C  0.78025531  0.99773920  0.61059361    -0.31900
N803        N  0.74874790  0.99849455  0.58339561     0.14600
C804        C  0.71662536  0.99851352  0.60990898    -0.31900
H805        H  0.68750836  0.99965654  0.59680505     0.16600
C806        C  0.77986610  0.05403268  0.75398168    -0.30900
N807        N  0.74823784  0.07211111  0.76645601     0.13400
C808        C  0.71649809  0.05701723  0.74886594    -0.30800
C809        C  0.77963500  0.44205243  0.74863978    -0.31100
N810        N  0.74766882  0.42612920  0.76448814     0.13900
H811        H  0.80889759  0.43499615  0.75728718     0.16500
C812        C  0.71624421  0.44375168  0.75013492    -0.31100
H813        H  0.68691470  0.43949643  0.76105415     0.16500
H814        H  0.68734360  0.06587322  0.75428084     0.16500
H815        H  0.80981171  0.99739942  0.59870998     0.16600
H816        H  0.80899732  0.05943248  0.76511115     0.16500
Zn817      Zn  0.53200767  0.20701625  0.98177110     1.49700
Zn818      Zn  0.96893964  0.24671581  0.04101956     1.49400
Zn819      Zn  0.53123329  0.28781925  0.98717443     1.49100
Zn820      Zn  0.96761805  0.24929531  0.92896176     1.49500
O821        O  0.99925325  0.24737162  0.98425787    -1.83800
O822        O  0.52357465  0.17738976  0.03601441    -0.74400
O823        O  0.97588095  0.28929637  0.07994254    -0.74200
O824        O  0.58635981  0.27625041  0.98566255    -0.73700
O825        O  0.98190531  0.20574351  0.07945387    -0.74400
O826        O  0.58761205  0.21982363  0.98029297    -0.74000
O827        O  0.52202171  0.31593753  0.04226663    -0.74600
O828        O  0.97716930  0.29214063  0.89215596    -0.74000
O829        O  0.91318192  0.24447166  0.02441870    -0.74700
O830        O  0.52153594  0.31808108  0.93510560    -0.74100
O831        O  0.91243906  0.24950006  0.94839718    -0.74600
O832        O  0.97630576  0.20799707  0.88777038    -0.74500
O833        O  0.52103718  0.17863638  0.92599660    -0.74300
C834        C  0.00324390  0.17990655  0.07167973     0.77500
C835        C  0.99773457  0.31481933  0.07451167     0.78000
C836        C  0.60445159  0.24832705  0.98253204     0.76900
C837        C  0.00023960  0.31681423  0.89850422     0.77300
C838        C  0.89534499  0.24682565  0.98663702     0.78500
C839        C  0.99805631  0.18195578  0.89125620     0.77500
Zn840      Zn  0.78187156  0.29030043  0.98480640     1.49700
Zn841      Zn  0.77949929  0.20863991  0.98735860     1.49400
Zn842      Zn  0.71765134  0.25301233  0.04044970     1.49100
Zn843      Zn  0.71933369  0.24978279  0.92797670     1.49500
O844        O  0.74929955  0.25040107  0.98506449    -1.83800
O845        O  0.83685332  0.27610245  0.98547614    -0.74400
O846        O  0.76752797  0.18155206  0.04301101    -0.74200
O847        O  0.72507881  0.29721007  0.07564468    -0.73700
O848        O  0.83563249  0.21954119  0.98842009    -0.74400
O849        O  0.77240811  0.32189552  0.03819832    -0.74000
O850        O  0.72702303  0.21339214  0.08349433    -0.74600
O851        O  0.66363494  0.24942055  0.94464539    -0.74000
O852        O  0.76940038  0.17796861  0.93358858    -0.74700
O853        O  0.66291804  0.25052181  0.02103406    -0.74100
O854        O  0.72891760  0.20717063  0.89022555    -0.74600
O855        O  0.72930370  0.29108715  0.88834737    -0.74500
O856        O  0.77320519  0.31799847  0.92903002    -0.74300
C857        C  0.85374574  0.24745230  0.98709027     0.77500
C858        C  0.74696782  0.18635774  0.07846347     0.78000
C859        C  0.74848560  0.32173879  0.07115791     0.76900
C860        C  0.64589792  0.24926523  0.98265447     0.77300
C861        C  0.74882019  0.18054990  0.89788018     0.78500
C862        C  0.75184240  0.31621861  0.89396885     0.77500
C863        C  0.72567874  0.34370984  0.82374248    -0.19900
C864        C  0.75239884  0.34435828  0.85994419    -0.06500
C865        C  0.77807245  0.37233413  0.86324364     0.14400
C866        C  0.77514407  0.39879077  0.83173130    -0.20000
C867        C  0.74802219  0.39838939  0.79635386    -0.06500
C868        C  0.72328175  0.37014375  0.79184355     0.14400
C869        C  0.69538233  0.36681070  0.75264132    -0.23300
H870        H  0.70622979  0.32244631  0.82037229     0.15600
H871        H  0.79416750  0.42040600  0.83493094     0.15700
C872        C  0.80901334  0.37504419  0.89931679    -0.23300
H873        H  0.68206011  0.34127037  0.75146700     0.05900
H874        H  0.71062354  0.37068915  0.71975423     0.09100
H875        H  0.67149393  0.38539252  0.75630690     0.09100
H876        H  0.82862031  0.35270171  0.89716158     0.09100
H877        H  0.79573209  0.37689397  0.93374861     0.09100
H878        H  0.82701484  0.39800667  0.89494846     0.05900
C879        C  0.74614429  0.09184014  0.84542365    -0.19900
C880        C  0.74786326  0.09939522  0.79891553    -0.06500
C881        C  0.74918584  0.13333499  0.78469065     0.14400
C882        C  0.74910723  0.15943945  0.81763709    -0.20000
C883        C  0.74813572  0.15206801  0.86455080    -0.06500
C884        C  0.74618034  0.11773734  0.87858212     0.14400
C885        C  0.74269229  0.10812650  0.92816523    -0.23300
H886        H  0.74470110  0.06553570  0.85555852     0.15600
H887        H  0.75038541  0.18559737  0.80679058     0.15700
C888        C  0.75082235  0.14165970  0.73469707    -0.23300
H889        H  0.73895654  0.08034745  0.93233840     0.05900
H890        H  0.71723629  0.12103234  0.94361776     0.09100
H891        H  0.76912880  0.11541950  0.94702198     0.09100
H892        H  0.72477952  0.13166970  0.71728952     0.09100
H893        H  0.77688082  0.12982572  0.71910275     0.09100
H894        H  0.75203894  0.16946232  0.72905461     0.05900
C895        C  0.01832660  0.40310152  0.84318780    -0.19900
C896        C  0.99856013  0.39921727  0.80202509    -0.06500
C897        C  0.47460274  0.36949232  0.79665266     0.14400
C898        C  0.47622076  0.34353388  0.82899047    -0.20000
C899        C  0.00112015  0.34558371  0.86566735    -0.06500
C900        C  0.02017953  0.37683463  0.87513535     0.14400
C901        C  0.04241109  0.38336522  0.91853363    -0.23300
H902        H  0.03232433  0.42712706  0.85025484     0.15600
H903        H  0.45822805  0.32145775  0.82409114     0.15700
C904        C  0.44909704  0.36491407  0.75557192    -0.23300
H905        H  0.05440382  0.40943674  0.91988407     0.05900
H906        H  0.06712131  0.36543683  0.92092283     0.09100
H907        H  0.02309351  0.38061510  0.94839075     0.09100
H908        H  0.46554748  0.36986599  0.72380255     0.09100
H909        H  0.42400389  0.38224136  0.75831775     0.09100
H910        H  0.43754905  0.33872630  0.75321899     0.05900
C911        C  0.00976467  0.12170573  0.86918504    -0.19900
C912        C  0.99733897  0.15433020  0.85607291    -0.06500
C913        C  0.48539478  0.16021413  0.81079573     0.14400
C914        C  0.48640973  0.13304514  0.77926415    -0.20000
C915        C  0.99829779  0.09950063  0.79294078    -0.06500
C916        C  0.01005775  0.09430803  0.83834701     0.14400
C917        C  0.02169921  0.05952762  0.85454064    -0.23300
H918        H  0.01878387  0.11735679  0.90410112     0.15600
H919        H  0.47738471  0.13691580  0.74429141     0.15700
C920        C  0.47186997  0.19446541  0.79448322    -0.23300
H921        H  0.02872167  0.05955911  0.89153216     0.05900
H922        H  0.04758494  0.05049017  0.83567899     0.09100
H923        H  0.99768577  0.04148820  0.84876176     0.09100
H924        H  0.49464087  0.21365286  0.80050889     0.09100
H925        H  0.44506765  0.20204311  0.81270716     0.09100
H926        H  0.46525540  0.19419794  0.75737089     0.05900
C927        C  0.85206148  0.46892887  0.69118890    -0.19900
C928        C  0.83224943  0.49996902  0.69585545    -0.06500
C929        C  0.85372846  0.02760287  0.68894527     0.14400
C930        C  0.89409297  0.02621353  0.69160285    -0.20000
C931        C  0.91425414  0.49723414  0.69648274    -0.06500
C932        C  0.89243315  0.46731827  0.68837334     0.14400
C933        C  0.90948862  0.43401882  0.67228225    -0.23300
H934        H  0.83590748  0.44574881  0.68621808     0.15600
H935        H  0.91004664  0.04931288  0.68585887     0.15700
C936        C  0.83643396  0.06041984  0.67200283    -0.23300
H937        H  0.89638434  0.42699632  0.63895497     0.05900
H938        H  0.90247364  0.41390783  0.69708619     0.09100
H939        H  0.94092253  0.43461428  0.66654463     0.09100
H940        H  0.84177747  0.08112373  0.69708337     0.09100
H941        H  0.80527254  0.05892759  0.66466219     0.09100
H942        H  0.85041369  0.06727641  0.63922838     0.05900
C943        C  0.64510190  0.47944802  0.67100746    -0.19900
C944        C  0.66440006  0.49893224  0.70424211    -0.06500
C945        C  0.64172291  0.00358517  0.74438812     0.14400
C946        C  0.60129284  0.00469937  0.74069997    -0.20000
C947        C  0.58230102  0.49471711  0.70296329    -0.06500
C948        C  0.60498382  0.47484662  0.67217197     0.14400
C949        C  0.58950114  0.44538506  0.64467717    -0.23300
H950        H  0.66169757  0.46487448  0.64637524     0.15600
H951        H  0.58460984  0.01247935  0.77031214     0.15700
C952        C  0.65804811  0.00784911  0.79184027    -0.23300
H953        H  0.60531750  0.42192803  0.65437868     0.05900
H954        H  0.59427019  0.44955876  0.60766302     0.09100
H955        H  0.55868370  0.44031489  0.65115297     0.09100
H956        H  0.65142742  0.03365129  0.80526927     0.09100
H957        H  0.68938929  0.00299758  0.79385874     0.09100
H958        H  0.64431241  0.98916020  0.81482709     0.05900
C959        C  0.73416327  0.37704334  0.17843971    -0.19900
C960        C  0.75146069  0.40732106  0.16497459    -0.06500
C961        C  0.76720245  0.40976190  0.12072488     0.14400
C962        C  0.76557102  0.38157247  0.09106480    -0.20000
C963        C  0.74830976  0.35084615  0.10434618    -0.06500
C964        C  0.73230347  0.34876967  0.14895263     0.14400
C965        C  0.71373152  0.31692438  0.16644067    -0.23300
H966        H  0.72210435  0.37564132  0.21256994     0.15600
H967        H  0.77757249  0.38376291  0.05707580     0.15700
C968        C  0.78449498  0.44246581  0.10426299    -0.23300
H969        H  0.70463996  0.31963121  0.20267939     0.05900
H970        H  0.73445246  0.29537461  0.16434168     0.09100
H971        H  0.68753887  0.31114885  0.14616651     0.09100
H972        H  0.81027970  0.44892994  0.12485115     0.09100
H973        H  0.76291888  0.46331607  0.10729014     0.09100
H974        H  0.79364077  0.44059467  0.06797596     0.05900
C975        C  0.74961816  0.12526387  0.09752252    -0.19900
C976        C  0.74599122  0.15903421  0.11316855    -0.06500
C977        C  0.74309384  0.16539251  0.16078773     0.14400
C978        C  0.74457057  0.13791374  0.19119070    -0.20000
C979        C  0.74877100  0.10451309  0.17517518    -0.06500
C980        C  0.75090776  0.09801529  0.12799921     0.14400
C981        C  0.75448000  0.06223722  0.11004115    -0.23300
H982        H  0.75137870  0.12011580  0.06124092     0.15600
H983        H  0.74268304  0.14234442  0.22760940     0.15700
C984        C  0.73975865  0.20086886  0.18001561    -0.23300
H985        H  0.75555017  0.06145513  0.07213272     0.05900
H986        H  0.72931456  0.04715877  0.12130940     0.09100
H987        H  0.78129384  0.05034463  0.12323837     0.09100
H988        H  0.71241470  0.21282026  0.16858568     0.09100
H989        H  0.76456069  0.21628455  0.16849884     0.09100
H990        H  0.73966588  0.20097650  0.21796465     0.05900
C991        C  0.73397107  0.47217500  0.51056053    -0.19900
C992        C  0.74948251  0.99749688  0.53449020    -0.06500
C993        C  0.76189627  0.02570438  0.50922639     0.14400
C994        C  0.76323639  0.02344482  0.46138564    -0.20000
C995        C  0.75222258  0.99364811  0.43854675    -0.06500
C996        C  0.73564349  0.46896256  0.46285724     0.14400
C997        C  0.72037280  0.43748863  0.43995183    -0.23300
H998        H  0.72090658  0.45233611  0.53079668     0.15600
H999        H  0.77234806  0.04504971  0.44152824     0.10700
C1000       C  0.77271430  0.05831722  0.53288620    -0.23300
H1001       H  0.70937835  0.41903734  0.46524359     0.05900
H1002       H  0.74379514  0.42494558  0.42006482     0.09100
H1003       H  0.70370083  0.93752721  0.41729857     0.09100
H1004       H  0.80897381  0.54965719  0.55236038     0.09100
H1005       H  0.74800815  0.06774375  0.55364204     0.09100
H1006       H  0.78050122  0.07829850  0.50805290     0.05900
C1007       C  0.00923933  0.40228631  0.12951285    -0.19900
C1008       C  0.99755202  0.39597416  0.17423213    -0.06500
C1009       C  0.49055989  0.36224859  0.18940322     0.14400
C1010       C  0.48960646  0.33647251  0.15594462    -0.20000
C1011       C  0.99705919  0.34343783  0.10798052    -0.06500
C1012       C  0.00856467  0.37679750  0.09596258     0.14400
C1013       C  0.01862322  0.38653223  0.04770151    -0.23300
H1014       H  0.01839335  0.42768999  0.12083073     0.15600
H1015       H  0.48086197  0.31108904  0.16555232     0.15700
C1016       C  0.48015913  0.35435959  0.23803860    -0.23300
H1017       H  0.02348428  0.41424113  0.04444407     0.05900
H1018       H  0.99448858  0.37970729  0.02457019     0.09100
H1019       H  0.04558589  0.37360594  0.03662226     0.09100
H1020       H  0.45496830  0.36991747  0.24890152     0.09100
H1021       H  0.50499195  0.36006702  0.26066663     0.09100
H1022       H  0.47262301  0.32719701  0.24223233     0.05900
C1023       C  0.50369590  0.16062366  0.15204023    -0.19900
C1024       C  0.00480717  0.15226403  0.10540551    -0.06500
C1025       C  0.00218864  0.11771302  0.09201589     0.14400
C1026       C  0.00217995  0.09255669  0.12562793    -0.20000
C1027       C  0.00566981  0.10107010  0.17185774    -0.06500
C1028       C  0.50472536  0.13544362  0.18561374     0.14400
C1029       C  0.50581280  0.14518962  0.23534169    -0.23300
H1030       H  0.50333256  0.18713975  0.16224194     0.15600
H1031       H  0.99950243  0.06608287  0.11605758     0.15700
C1032       C  0.99826177  0.10717636  0.04261918    -0.23300
H1033       H  0.50582010  0.17318116  0.24017812     0.05900
H1034       H  0.53235375  0.13471852  0.25123100     0.09100
H1035       H  0.48021558  0.13480886  0.25305110     0.09100
H1036       H  0.02472475  0.11389578  0.02348236     0.09100
H1037       H  0.97291976  0.12003393  0.02716794     0.09100
H1038       H  0.99420751  0.07935612  0.03887992     0.05900
C1039       C  0.89835735  0.52299126  0.29994236    -0.19900
C1040       C  0.91773204  0.50506121  0.26490226    -0.06500
C1041       C  0.89646021  0.99766730  0.22570997     0.14400
C1042       C  0.85596361  0.99725347  0.22882305    -0.20000
C1043       C  0.83565615  0.50886150  0.26760217    -0.06500
C1044       C  0.85802386  0.52674663  0.30043090     0.14400
C1045       C  0.84159987  0.55284664  0.33316582    -0.23300
H1046       H  0.91480626  0.53648703  0.32551318     0.15600
H1047       H  0.83973976  0.99155440  0.19838862     0.15700
C1048       C  0.91330264  0.99371478  0.17838993    -0.23300
H1049       H  0.85572964  0.57760609  0.32704184     0.05900
H1050       H  0.84758732  0.54535246  0.36893843     0.09100
H1051       H  0.81058395  0.05551268  0.33027492     0.09100
H1052       H  0.90500094  0.46707009  0.16468899     0.09100
H1053       H  0.94475172  0.99794049  0.17696767     0.09100
H1054       H  0.90007523  0.01294325  0.15562804     0.05900
C1055       C  0.64903789  0.47282257  0.27904006    -0.19900
C1056       C  0.66755686  0.50440873  0.27611823    -0.06500
C1057       C  0.64557525  0.03217144  0.28626262     0.14400
C1058       C  0.60529491  0.03030695  0.28191247    -0.20000
C1059       C  0.58545679  0.49969985  0.27579368    -0.06500
C1060       C  0.60868635  0.47029389  0.28260765     0.14400
C1061       C  0.59319434  0.43696490  0.29936709    -0.23300
H1062       H  0.66628737  0.44994956  0.28190738     0.15600
H1063       H  0.58847315  0.05303379  0.28808966     0.15700
C1064       C  0.66147839  0.06448512  0.30663453    -0.23300
H1065       H  0.60799528  0.43021684  0.33170294     0.05900
H1066       H  0.59912195  0.41654239  0.27396766     0.09100
H1067       H  0.56208273  0.43785044  0.30747485     0.09100
H1068       H  0.65713436  0.08586803  0.28271509     0.09100
H1069       H  0.69226169  0.06256785  0.31612334     0.09100
H1070       H  0.64584303  0.07046330  0.33884240     0.05900
C1071       C  0.48219187  0.01978484  0.45821114    -0.19900
C1072       C  0.49970465  0.99244380  0.43523004    -0.06500
C1073       C  0.01653746  0.46769541  0.46109608     0.14400
C1074       C  0.01489138  0.46857357  0.50897389    -0.20000
C1075       C  0.50005791  0.49727171  0.53289794    -0.06500
C1076       C  0.48136688  0.02128497  0.50599689     0.14400
C1077       C  0.46425046  0.05194945  0.52956850    -0.23300
H1078       H  0.46979445  0.04025368  0.43849013     0.15600
H1079       H  0.02782979  0.44829014  0.52859164     0.15700
C1080       C  0.03526298  0.43785881  0.43725339    -0.23300
H1081       H  0.45465013  0.07137215  0.50467922     0.05900
H1082       H  0.56470435  0.54355342  0.54902127     0.09100
H1083       H  0.43879141  0.04460499  0.55004934     0.09100
H1084       H  0.06096765  0.44616494  0.41793509     0.09100
H1085       H  0.97167203  0.92944877  0.41180671     0.09100
H1086       H  0.04493557  0.41830611  0.46193604     0.05900
C1087       C  0.54214896  0.99951525  0.26938499     0.30400
C1088       C  0.96284539  0.00203890  0.26815473     0.30400
C1089       C  0.52146990  0.99803833  0.31555212    -0.05800
C1090       C  0.52211487  0.52948253  0.24655940    -0.06600
C1091       C  0.52247950  0.97076542  0.24206453    -0.06500
C1092       C  0.98130873  0.99990532  0.31602244    -0.05800
C1093       C  0.98342690  0.53011393  0.24460321    -0.06600
C1094       C  0.98251404  0.97139093  0.24467900    -0.06500
C1095       C  0.96874503  0.49688334  0.36016161    -0.31900
N1096       N  0.49882275  0.49603178  0.38807781     0.14600
C1097       C  0.53107692  0.49779824  0.36210942    -0.31900
H1098       H  0.56034815  0.49740136  0.37507819     0.16600
C1099       C  0.97325354  0.55733127  0.21789255    -0.30900
N1100       N  0.00601748  0.57174326  0.20221121     0.13400
C1101       C  0.53406097  0.55624003  0.22009184    -0.30800
C1102       C  0.97069556  0.94267704  0.22189213    -0.31100
N1103       N  0.00218689  0.92630822  0.20539656     0.13900
H1104       H  0.94129287  0.93445416  0.21662129     0.16500
C1105       C  0.53379872  0.94348576  0.21542534    -0.31100
H1106       H  0.56282675  0.93720811  0.20459876     0.16500
H1107       H  0.56352989  0.56243208  0.21090252     0.16500
H1108       H  0.93936711  0.49538474  0.37246164     0.16600
H1109       H  0.94434906  0.56510320  0.20870216     0.16500
C1110       C  0.79205326  0.00459461  0.27089601     0.30400
C1111       C  0.71261260  0.00352312  0.27228513     0.30400
C1112       C  0.77293247  0.99951145  0.31807309    -0.05800
C1113       C  0.77068694  0.53790866  0.25186827    -0.06600
C1114       C  0.77281414  0.97559618  0.24321594    -0.06500
C1115       C  0.73275527  0.99964342  0.31842003    -0.05800
C1116       C  0.73033959  0.53722698  0.25214876    -0.06600
C1117       C  0.73241912  0.97549351  0.24330437    -0.06500
C1118       C  0.72083600  0.99585796  0.36286093    -0.31900
N1119       N  0.75278498  0.49396976  0.38825787     0.14600
C1120       C  0.78437878  0.99460468  0.36275368    -0.31900
H1121       H  0.81373534  0.99278925  0.37527811     0.16600
C1122       C  0.71810315  0.56123125  0.22134140    -0.30900
N1123       N  0.74935262  0.57720161  0.20452759     0.13400
C1124       C  0.78160282  0.56283016  0.22194312    -0.30800
C1125       C  0.72096382  0.94955612  0.21456301    -0.31100
N1126       N  0.75284102  0.93341154  0.19849512     0.13900
H1127       H  0.69175190  0.94315160  0.20502989     0.16500
C1128       C  0.78450652  0.94846273  0.21632751    -0.31100
H1129       H  0.81376201  0.93991087  0.21000073     0.16500
H1130       H  0.81062626  0.56845905  0.21112762     0.16500
H1131       H  0.69137796  0.99617885  0.37510134     0.16600
H1132       H  0.68879842  0.56537488  0.20967245     0.16500
C1133       C  0.53773793  0.99585608  0.69915154     0.30400
C1134       C  0.95824892  0.99581570  0.69978254     0.30400
C1135       C  0.51845821  0.99458483  0.65177899    -0.05800
C1136       C  0.51709955  0.96778188  0.72549365    -0.06600
C1137       C  0.51763080  0.52829053  0.72281112    -0.06500
C1138       C  0.97769757  0.99272533  0.65302225    -0.05800
C1139       C  0.97768879  0.96781412  0.72767999    -0.06600
C1140       C  0.97803572  0.52894897  0.72149676    -0.06500
C1141       C  0.96526982  0.99285287  0.60843186    -0.31900
N1142       N  0.49798223  0.99518193  0.57999042     0.14600
C1143       C  0.52981629  0.99593573  0.60672860    -0.31900
H1144       H  0.55909337  0.99827344  0.59396192     0.16600
C1145       C  0.96587329  0.94462165  0.75943935    -0.30900
N1146       N  0.99733269  0.92780625  0.77526540     0.13400
C1147       C  0.52815794  0.94191125  0.75391071    -0.30800
C1148       C  0.96652146  0.55627735  0.74821142    -0.31100
N1149       N  0.99827792  0.57339764  0.76198510     0.13900
H1150       H  0.93754769  0.56213501  0.75943501     0.16500
C1151       C  0.52813656  0.55704617  0.74693896    -0.31100
H1152       H  0.55716383  0.56553800  0.75437033     0.16500
H1153       H  0.55750294  0.93455057  0.76207657     0.16500
H1154       H  0.93571199  0.99298770  0.59666279     0.16600
H1155       H  0.93678040  0.94148214  0.77157899     0.16500
C1156       C  0.70846050  0.99711365  0.70290609     0.30400
C1157       C  0.78793613  0.99749250  0.70175016     0.30400
C1158       C  0.72778140  0.99738913  0.65522495    -0.05800
C1159       C  0.72898317  0.53146214  0.72448221    -0.06600
C1160       C  0.72870455  0.96707016  0.72585370    -0.06500
C1161       C  0.76801206  0.99734467  0.65517998    -0.05800
C1162       C  0.76918723  0.52971311  0.72565229    -0.06600
C1163       C  0.76894862  0.96722718  0.72580497    -0.06500
C1164       C  0.78026940  0.50056698  0.60897261    -0.31900
N1165       N  0.74883707  0.50203053  0.58175675     0.14600
C1166       C  0.71666618  0.50269204  0.60829359    -0.31900
H1167       H  0.68750849  0.50396543  0.59522494     0.16600
C1168       C  0.78167721  0.55614571  0.75257065    -0.30900
N1169       N  0.75075898  0.57536962  0.76445576     0.13400
C1170       C  0.71851833  0.56091867  0.74714895    -0.30800
C1171       C  0.78065174  0.94138840  0.75423611    -0.31100
N1172       N  0.74885204  0.92524406  0.76954328     0.13900
H1173       H  0.80980804  0.93555758  0.76486437     0.16500
C1174       C  0.71701317  0.94075498  0.75291056    -0.31100
H1175       H  0.68761271  0.93432616  0.76174999     0.16500
H1176       H  0.68952391  0.57053485  0.75248554     0.16500
H1177       H  0.80980256  0.49883190  0.59721530     0.16600
H1178       H  0.81092468  0.56079335  0.76365691     0.16500
Zn1179     Zn  0.53241949  0.70712752  0.98304160     1.49700
Zn1180     Zn  0.97109005  0.74679643  0.04430537     1.49400
Zn1181     Zn  0.53253960  0.78819683  0.98741590     1.49100
Zn1182     Zn  0.97030998  0.75032370  0.93252293     1.49500
O1183       O  0.00158581  0.74843077  0.98788022    -1.83800
O1184       O  0.52377898  0.67738852  0.03735758    -0.74400
O1185       O  0.97786479  0.78872073  0.08475392    -0.74200
O1186       O  0.58767077  0.77583872  0.98792129    -0.73700
O1187       O  0.98387625  0.70475167  0.08083434    -0.74400
O1188       O  0.58832715  0.71940418  0.98171173    -0.74000
O1189       O  0.52216213  0.81713539  0.04162445    -0.74600
O1190       O  0.98002862  0.79297084  0.89691802    -0.74000
O1191       O  0.91536491  0.74562576  0.02700742    -0.74700
O1192       O  0.52352132  0.81819286  0.93418656    -0.74100
O1193       O  0.91534138  0.75161206  0.95114624    -0.74600
O1194       O  0.97803451  0.70928175  0.89058953    -0.74500
O1195       O  0.52014594  0.67884921  0.92745929    -0.74300
C1196       C  0.00631634  0.67966114  0.07274880     0.77500
C1197       C  0.99784092  0.81534165  0.07889128     0.78000
C1198       C  0.60549619  0.74774167  0.98478006     0.76900
C1199       C  0.00224063  0.81810616  0.90384684     0.77300
C1200       C  0.89790941  0.74890732  0.98908962     0.78500
C1201       C  0.99962436  0.68312057  0.89355196     0.77500
Zn1202     Zn  0.78359460  0.79085775  0.98559308     1.49700
Zn1203     Zn  0.78305751  0.71022316  0.98698735     1.49400
Zn1204     Zn  0.71963721  0.75247951  0.04069180     1.49100
Zn1205     Zn  0.72017015  0.74967994  0.92990035     1.49500
O1206       O  0.75133770  0.75087309  0.98572349    -1.83800
O1207       O  0.83919088  0.77801160  0.98534971    -0.74400
O1208       O  0.77086109  0.68099550  0.04021142    -0.74200
O1209       O  0.72781208  0.79546265  0.07766347    -0.73700
O1210       O  0.83852400  0.72167001  0.99095754    -0.74400
O1211       O  0.77410119  0.82127434  0.03966678    -0.74000
O1212       O  0.72948248  0.71198979  0.08064639    -0.74600
O1213       O  0.66465122  0.74766010  0.94684515    -0.74000
O1214       O  0.77568127  0.68185989  0.93113636    -0.74700
O1215       O  0.66431822  0.75061663  0.02298880    -0.74100
O1216       O  0.73113189  0.70849388  0.89072978    -0.74600
O1217       O  0.72795519  0.79148997  0.89181658    -0.74500
O1218       O  0.77277594  0.81905565  0.93120580    -0.74300
C1219       C  0.85636738  0.74959318  0.98877029     0.77500
C1220       C  0.74973101  0.68522738  0.07527507     0.78000
C1221       C  0.75078841  0.82027260  0.07314894     0.76900
C1222       C  0.64703065  0.74838833  0.98487404     0.77300
C1223       C  0.75389392  0.68344366  0.89641478     0.78500
C1224       C  0.74981945  0.81697736  0.89759012     0.77500
C1225       C  0.74911490  0.83789868  0.81806391    -0.19900
C1226       C  0.74845197  0.84518944  0.86503592    -0.06500
C1227       C  0.74685667  0.87939212  0.88028482     0.14400
C1228       C  0.74697164  0.90543014  0.84801986    -0.20000
C1229       C  0.74871192  0.89801743  0.80135121    -0.06500
C1230       C  0.74957902  0.86412558  0.78601350     0.14400
C1231       C  0.75121962  0.85605245  0.73576864    -0.23300
H1232       H  0.75011468  0.81168191  0.80649917     0.15600
H1233       H  0.74574123  0.93177671  0.85900740     0.15700
C1234       C  0.74371271  0.88858655  0.93029146    -0.23300
H1235       H  0.75167045  0.82824844  0.72923627     0.05900
H1236       H  0.77769414  0.86708389  0.72075820     0.09100
H1237       H  0.72558019  0.86700621  0.71848946     0.09100
H1238       H  0.77028740  0.88089435  0.94863892     0.09100
H1239       H  0.71841741  0.87576155  0.94555232     0.09100
H1240       H  0.73993795  0.91635770  0.93551847     0.05900
C1241       C  0.76279560  0.59583122  0.84153965    -0.19900
C1242       C  0.75167037  0.60276801  0.79673432    -0.06500
C1243       C  0.74205620  0.63613651  0.78413921     0.14400
C1244       C  0.74356237  0.66212265  0.81714762    -0.20000
C1245       C  0.75444729  0.65530845  0.86249487    -0.06500
C1246       C  0.76405385  0.62149242  0.87480994     0.14400
C1247       C  0.77425631  0.61161498  0.92304382    -0.23300
H1248       H  0.76994553  0.56994468  0.85045948     0.15600
H1249       H  0.73627844  0.68785327  0.80744085     0.15700
C1250       C  0.73099526  0.64422757  0.73573831    -0.23300
H1251       H  0.77819350  0.58376214  0.92645558     0.05900
H1252       H  0.75078601  0.61950329  0.94674629     0.09100
H1253       H  0.80178305  0.62362476  0.93338620     0.09100
H1254       H  0.70433951  0.63044871  0.72629457     0.09100
H1255       H  0.75464168  0.63644595  0.71222880     0.09100
H1256       H  0.72549996  0.67179164  0.73119689     0.05900
C1257       C  0.02428786  0.90172425  0.84376517    -0.19900
C1258       C  0.99732818  0.90090883  0.80823387    -0.06500
C1259       C  0.47427319  0.87061122  0.79701827     0.14400
C1260       C  0.47679604  0.84421308  0.82875627    -0.20000
C1261       C  0.00195452  0.84707863  0.87156568    -0.06500
C1262       C  0.02712682  0.87536214  0.87550995     0.14400
C1263       C  0.05739826  0.87832751  0.91232296    -0.23300
H1264       H  0.04333498  0.92337654  0.84657704     0.15600
H1265       H  0.45997758  0.82148541  0.82295496     0.15700
C1266       C  0.44938482  0.86598822  0.75541411    -0.23300
H1267       H  0.07463855  0.90183955  0.90894039     0.05900
H1268       H  0.07777696  0.85653688  0.91003218     0.09100
H1269       H  0.04351143  0.87923895  0.94648107     0.09100
H1270       H  0.46617941  0.87143290  0.72404067     0.09100
H1271       H  0.42403873  0.88309420  0.75780197     0.09100
H1272       H  0.43833965  0.83966553  0.75251189     0.05900
C1273       C  0.00886349  0.62247269  0.87148489    -0.19900
C1274       C  0.99810045  0.65550991  0.85827745    -0.06500
C1275       C  0.48122919  0.65956005  0.81378748     0.14400
C1276       C  0.48163864  0.63207882  0.78269010    -0.20000
C1277       C  0.99833837  0.60084029  0.79464275    -0.06500
C1278       C  0.00844593  0.59512791  0.84049023     0.14400
C1279       C  0.01742190  0.55983162  0.85690055    -0.23300
H1280       H  0.01694618  0.61776708  0.90665953     0.15600
H1281       H  0.47193310  0.63559357  0.74795217     0.15700
C1282       C  0.46702493  0.69357003  0.79735585    -0.23300
H1283       H  0.02354084  0.55947595  0.89411702     0.05900
H1284       H  0.04306080  0.54949896  0.83876344     0.09100
H1285       H  0.99236981  0.54308122  0.85028032     0.09100
H1286       H  0.48995397  0.71285115  0.80171857     0.09100
H1287       H  0.44090163  0.70136512  0.81678110     0.09100
H1288       H  0.45903676  0.69280336  0.76064177     0.05900
C1289       C  0.85205718  0.96674121  0.69446582    -0.19900
C1290       C  0.83208764  0.99782680  0.69793963    -0.06500
C1291       C  0.85415436  0.52982965  0.68828822     0.14400
C1292       C  0.89443869  0.52825918  0.69196347    -0.20000
C1293       C  0.91410369  0.99537353  0.69692474    -0.06500
C1294       C  0.89236624  0.96518049  0.69088251     0.14400
C1295       C  0.90944549  0.93148359  0.67633826    -0.23300
H1296       H  0.83602454  0.94333877  0.69106671     0.15600
H1297       H  0.91053394  0.55141442  0.68726389     0.15700
C1298       C  0.83734714  0.56288895  0.67145204    -0.23300
H1299       H  0.89579128  0.92327055  0.64381935     0.05900
H1300       H  0.90315834  0.91213315  0.70244210     0.09100
H1301       H  0.94075732  0.93211854  0.66969448     0.09100
H1302       H  0.84243172  0.58339724  0.69690804     0.09100
H1303       H  0.80629441  0.56157911  0.66337069     0.09100
H1304       H  0.85191788  0.56995044  0.63913055     0.05900
C1305       C  0.64489574  0.97588162  0.67121974    -0.19900
C1306       C  0.66414809  0.99465022  0.70523415    -0.06500
C1307       C  0.64234818  0.50790246  0.74370729     0.14400
C1308       C  0.60184938  0.50800720  0.74106150    -0.20000
C1309       C  0.58204050  0.99273897  0.70154936    -0.06500
C1310       C  0.60458063  0.97251244  0.67104898     0.14400
C1311       C  0.58860344  0.94363158  0.64287774    -0.23300
H1312       H  0.66148486  0.96099263  0.64696034     0.15600
H1313       H  0.58553780  0.51559164  0.77096939     0.15700
C1314       C  0.65920048  0.51285459  0.79076990    -0.23300
H1315       H  0.60381895  0.91979465  0.65222774     0.05900
H1316       H  0.59365385  0.94813213  0.60599202     0.09100
H1317       H  0.55767404  0.93895240  0.64919478     0.09100
H1318       H  0.65284403  0.53888909  0.80353837     0.09100
H1319       H  0.69049457  0.50774971  0.79252877     0.09100
H1320       H  0.64563469  0.49459957  0.81451550     0.05900
C1321       C  0.73806957  0.87407480  0.18165794    -0.19900
C1322       C  0.75284604  0.90516319  0.16730893    -0.06500
C1323       C  0.76653694  0.90851492  0.12230786     0.14400
C1324       C  0.76511935  0.88050650  0.09247041    -0.20000
C1325       C  0.75051508  0.84896995  0.10663331    -0.06500
C1326       C  0.73694926  0.84578681  0.15217749     0.14400
C1327       C  0.72223746  0.81268805  0.17064885    -0.23300
H1328       H  0.72767212  0.87200100  0.21648653     0.15600
H1329       H  0.77530234  0.88341053  0.05778287     0.15700
C1330       C  0.78177395  0.94190516  0.10554448    -0.23300
H1331       H  0.71515211  0.81463026  0.20758700     0.05900
H1332       H  0.74457434  0.79258610  0.16648222     0.09100
H1333       H  0.69549777  0.80522649  0.15251748     0.09100
H1334       H  0.80787565  0.94907351  0.12514602     0.09100
H1335       H  0.75942082  0.96198139  0.10988000     0.09100
H1336       H  0.78981532  0.94060540  0.06885249     0.05900
C1337       C  0.75388275  0.62419726  0.09443612    -0.19900
C1338       C  0.74844497  0.65790111  0.10962423    -0.06500
C1339       C  0.74267001  0.66443961  0.15683022     0.14400
C1340       C  0.74287673  0.63719162  0.18734888    -0.20000
C1341       C  0.74853343  0.60389623  0.17190233    -0.06500
C1342       C  0.75369246  0.59710777  0.12513776     0.14400
C1343       C  0.75852649  0.56122793  0.10793728    -0.23300
H1344       H  0.75791975  0.61896851  0.05839195     0.15600
H1345       H  0.73893037  0.64170928  0.22354897     0.15700
C1346       C  0.73750317  0.69988872  0.17572119    -0.23300
H1347       H  0.76175447  0.56020734  0.07021105     0.05900
H1348       H  0.73284929  0.54610298  0.11736950     0.09100
H1349       H  0.78457318  0.54953685  0.12338248     0.09100
H1350       H  0.71036645  0.71124198  0.16263689     0.09100
H1351       H  0.76238224  0.71583095  0.16582594     0.09100
H1352       H  0.73565319  0.70006544  0.21359651     0.05900
C1353       C  0.73846368  0.96773055  0.51168216    -0.19900
C1354       C  0.74982191  0.50039247  0.53288628    -0.06500
C1355       C  0.76780552  0.52600662  0.50720985     0.14400
C1356       C  0.76905472  0.52297097  0.45951018    -0.20000
C1357       C  0.75289670  0.49490487  0.43716542    -0.06500
C1358       C  0.73974588  0.96546270  0.46384025     0.14400
C1359       C  0.72863667  0.93296689  0.44018442    -0.23300
H1360       H  0.72922243  0.94609904  0.53162873     0.15600
H1361       H  0.78208658  0.54279828  0.43929711     0.10700
C1362       C  0.78454332  0.55696119  0.53002983    -0.23300
H1363       H  0.72040639  0.91309894  0.46503112     0.05900
H1364       H  0.75334500  0.92326080  0.41969269     0.09100
H1365       H  0.69632012  0.44407151  0.41667746     0.09100
H1366       H  0.79786972  0.05403189  0.55555766     0.09100
H1367       H  0.76202148  0.56995234  0.55082928     0.09100
H1368       H  0.79560463  0.57530653  0.50465353     0.05900
C1369       C  0.98804991  0.90363244  0.12973718    -0.19900
C1370       C  0.00087924  0.89811019  0.17434202    -0.06500
C1371       C  0.50144757  0.86398739  0.18790567     0.14400
C1372       C  0.50026442  0.83726762  0.15590911    -0.20000
C1373       C  0.99585416  0.84361054  0.11203064    -0.06500
C1374       C  0.98563008  0.87681333  0.09818567     0.14400
C1375       C  0.97133992  0.88394918  0.05056602    -0.23300
H1376       H  0.98017162  0.92917311  0.11970357     0.15600
H1377       H  0.50082272  0.81122221  0.16757342     0.15700
C1378       C  0.50326062  0.85653038  0.23813060    -0.23300
H1379       H  0.96334409  0.91108940  0.04631392     0.05900
H1380       H  0.94540039  0.86844139  0.04336060     0.09100
H1381       H  0.99408762  0.87778702  0.02512652     0.09100
H1382       H  0.47784376  0.86794171  0.25562075     0.09100
H1383       H  0.52995435  0.86748841  0.25286895     0.09100
H1384       H  0.50339543  0.82880119  0.24468899     0.05900
C1385       C  0.50348270  0.65960039  0.15339327    -0.19900
C1386       C  0.00818669  0.65131895  0.10549890    -0.06500
C1387       C  0.00997160  0.61693031  0.09082162     0.14400
C1388       C  0.00901037  0.59109823  0.12348960    -0.20000
C1389       C  0.00768924  0.59882541  0.17011596    -0.06500
C1390       C  0.50347906  0.63387039  0.18628601     0.14400
C1391       C  0.50416550  0.64279557  0.23630620    -0.23300
H1392       H  0.50379631  0.68593533  0.16430597     0.15600
H1393       H  0.00934240  0.56474220  0.11288763     0.15700
C1394       C  0.01199860  0.60708939  0.04098094    -0.23300
H1395       H  0.50468205  0.67069995  0.24197022     0.05900
H1396       H  0.53026816  0.63163259  0.25235436     0.09100
H1397       H  0.47812666  0.63255015  0.25325050     0.09100
H1398       H  0.03944486  0.61608146  0.02595464     0.09100
H1399       H  0.98723634  0.61829646  0.02228790     0.09100
H1400       H  0.01111654  0.57912313  0.03604238     0.05900
C1401       C  0.89891856  0.02243053  0.30079721    -0.19900
C1402       C  0.91854977  0.00509832  0.26548112    -0.06500
C1403       C  0.89570711  0.49786234  0.22501685     0.14400
C1404       C  0.85523259  0.49851227  0.22768655    -0.20000
C1405       C  0.83635842  0.00732189  0.26891876    -0.06500
C1406       C  0.85854896  0.02544162  0.30165910     0.14400
C1407       C  0.84188775  0.05125447  0.33460776    -0.23300
H1408       H  0.91520103  0.03615963  0.32632491     0.15600
H1409       H  0.83904037  0.49316322  0.19705828     0.15700
C1410       C  0.91275774  0.49256326  0.17802961    -0.23300
H1411       H  0.85574899  0.07614768  0.32865876     0.05900
H1412       H  0.84801883  0.04365332  0.37030705     0.09100
H1413       H  0.81031478  0.55723222  0.32879872     0.09100
H1414       H  0.90662433  0.96818925  0.16433916     0.09100
H1415       H  0.94438255  0.49556656  0.17679555     0.09100
H1416       H  0.90059757  0.51184968  0.15454336     0.05900
C1417       C  0.64945919  0.97157153  0.27699946    -0.19900
C1418       C  0.66839638  0.00301852  0.27594343    -0.06500
C1419       C  0.64436791  0.53354804  0.28553933     0.14400
C1420       C  0.60401396  0.53113106  0.28195405    -0.20000
C1421       C  0.58639400  0.99925792  0.27393418    -0.06500
C1422       C  0.60907575  0.96935379  0.27937350     0.14400
C1423       C  0.59296392  0.93548706  0.29320213    -0.23300
H1424       H  0.66628853  0.94847223  0.27950263     0.15600
H1425       H  0.58687900  0.55380583  0.28739773     0.15700
C1426       C  0.65997561  0.56636178  0.30471059    -0.23300
H1427       H  0.60729109  0.92715229  0.32515074     0.05900
H1428       H  0.59897495  0.91614144  0.26633440     0.09100
H1429       H  0.56178811  0.93630037  0.30091495     0.09100
H1430       H  0.65574394  0.58716847  0.27986842     0.09100
H1431       H  0.69065928  0.56468983  0.31471680     0.09100
H1432       H  0.64408475  0.57303441  0.33651223     0.05900
C1433       C  0.51733603  0.52211955  0.46032306    -0.19900
C1434       C  0.49823154  0.49606619  0.43695757    -0.06500
C1435       C  0.99744752  0.96365696  0.46029967     0.14400
C1436       C  0.99613538  0.96407794  0.50817699    -0.20000
C1437       C  0.49798718  0.99457335  0.53111636    -0.06500
C1438       C  0.51851165  0.52311161  0.50806486     0.14400
C1439       C  0.53820278  0.55238571  0.53157468    -0.23300
H1440       H  0.53126219  0.54188590  0.44081725     0.15600
H1441       H  0.99516234  0.94045795  0.52691105     0.15700
C1442       C  0.99721238  0.93047581  0.43458219    -0.23300
H1443       H  0.54704362  0.57211649  0.50685827     0.05900
H1444       H  0.48611947  0.06368584  0.55230311     0.09100
H1445       H  0.51834481  0.56442288  0.55673692     0.09100
H1446       H  0.02378548  0.92808825  0.41360778     0.09100
H1447       H  0.01440836  0.42589775  0.41342282     0.09100
H1448       H  0.99601225  0.90851068  0.45808588     0.05900
loop_ 
_geom_bond_atom_site_label_1 
_geom_bond_atom_site_label_2 
_geom_bond_distance 
_geom_bond_site_symmetry_2 
_ccdc_geom_bond_type 
C1            C3   1.530       .  S
C1            C5   1.546       .  S
C1          C335   1.539       .  S
C1          C366   1.538       .  S
C2            C6   1.542       .  S
C2            C8   1.544       .  S
C2          C316   1.542       .  S
C2          C369   1.532       .  S
C3          C373   1.373       .  A
C3          C730   1.395   1_455  A
C4          C363   1.542       .  S
C4           C15   1.379       .  A
C4          C731   1.395   1_455  A
C5           C19   1.378       .  A
C5          C732   1.400   1_455  A
C6          C727   1.396       .  A
C6          C371   1.378       .  A
C7          C364   1.532       .  S
C7           C13   1.375       .  A
C7          C728   1.394       .  A
C8           C16   1.378       .  A
C8          C729   1.400       .  A
C9          C368   1.379       .  A
C9           H22   1.082       .  S
C9          N734   1.356       .  A
N10          C11   1.354       .  A
N10         C733   1.354   1_455  A
N10         C348   1.428   1_455  S
C11         C365   1.375       .  A
C11          H12   1.083       .  S
C13          H23   1.083       .  S
C13          N14   1.353       .  A
N14         C739   1.355       .  A
N14         C303   1.429       .  S
C15          H21   1.086       .  S
C15         N738   1.354       .  A
C16          H18   1.084       .  S
C16          N17   1.355       .  A
N17         C743   1.357       .  A
N17         C284   1.433       .  S
C19          H20   1.081       .  S
C19         N741   1.357   1_455  A
C24          C26   1.546       .  S
C24          C28   1.550       .  S
C24         C319   1.541       .  S
C24         C389   1.537       .  S
C25          C29   1.529       .  S
C25          C31   1.542       .  S
C25         C332   1.535       .  S
C25         C392   1.537       .  S
C26          C34   1.382       .  A
C26          C29   1.392       .  A
C27         C386   1.536       .  S
C27          C38   1.378       .  A
C27          C30   1.400       .  A
C28          C42   1.381       .  A
C28          C31   1.400       .  A
C29          C32   1.374       .  A
C30         C387   1.536       .  S
C30          C36   1.377       .  A
C31          C39   1.378       .  A
C32          H45   1.083       .  S
C32         N395   1.355       .  A
N33         C394   1.353       .  A
N33         C396   1.357       .  A
N33         C271   1.431       .  S
C34          H35   1.083       .  S
C34         N395   1.358       .  A
C36          H46   1.083       .  S
C36          N37   1.351       .  A
N37          C38   1.354       .  A
N37         C255   1.428       .  S
C38          H44   1.080       .  S
C39          H41   1.083       .  S
C39          N40   1.353       .  A
N40          C42   1.354       .  A
N40         C236   1.432       .  S
C42          H43   1.083       .  S
C47          C49   1.541       .  S
C47          C50   1.534       .  S
C47         C223   1.541       .  S
C47         C413   1.553       .  S
C48          C52   1.529       .  S
C48          C53   1.535       .  S
C48         C207   1.537       .  S
C48         C416   1.546       .  S
C49          C57   1.377       .  A
C49         C776   1.392   1_455  A
C50          C61   1.375       .  A
C50         C777   1.392   1_455  A
C51         C409   1.552   1_545  S
C51          C65   1.381       .  A
C51         C778   1.403   1_455  A
C52          C55   1.373       .  A
C52         C773   1.392       .  A
C53          C59   1.375       .  A
C53         C774   1.392       .  A
C54         C410   1.548   1_545  S
C54          C62   1.381       .  A
C54         C775   1.404       .  A
C55          H68   1.083       .  S
C55         N780   1.356       .  A
N56          C57   1.354   1_655  A
N56         C779   1.355       .  A
N56         C351   1.431       .  S
C57          H58   1.087       .  S
C59          H69   1.079       .  S
C59          N60   1.357       .  A
N60         C785   1.359       .  A
N60         C172   1.437       .  S
C61          H67   1.083       .  S
C61         N784   1.357   1_455  A
C62          H64   1.081       .  S
C62          N63   1.355       .  A
N63         C789   1.356       .  A
N63         C191   1.436       .  S
C65          H66   1.084       .  S
C65         N787   1.356   1_455  A
C70          C72   1.548       .  S
C70          C74   1.533       .  S
C70         C220   1.542       .  S
C70         C435   1.547       .  S
C71          C75   1.531       .  S
C71          C77   1.543       .  S
C71         C204   1.537       .  S
C71         C438   1.538       .  S
C72          C75   1.395       .  A
C72         C442   1.384       .  A
C73         C432   1.546   1_545  S
C73          C84   1.381       .  A
C73          C76   1.397       .  A
C74          C88   1.373       .  A
C74          C77   1.396       .  A
C75         C440   1.374       .  A
C76         C433   1.539   1_545  S
C76          C82   1.374       .  A
C77          C85   1.381       .  A
C78         C437   1.369       .  A
C78          H91   1.082   1_545  S
C78          N79   1.352       .  A
N79          C80   1.359       .  A
N79         C268   1.431       .  S
C80         C434   1.384       .  A
C80          H81   1.081       .  S
C82          H92   1.082       .  S
C82          N83   1.354       .  A
N83          C84   1.357       .  A
N83         C156   1.433       .  S
C84          H90   1.082       .  S
C85          H87   1.083       .  S
C85          N86   1.356       .  A
N86          C88   1.352       .  A
N86         C143   1.430       .  S
C88          H89   1.084       .  S
Zn93         O98   2.000   1_556  S
Zn93        O102   1.995       .  S
Zn93        O109   2.003       .  S
Zn93        O821   1.946   1_455  S
Zn94         O99   2.045       .  S
Zn94        O101   2.022       .  S
Zn94        O105   1.998       .  S
Zn94         O97   1.964   1_554  S
Zn95        O100   1.969       .  S
Zn95        O103   1.984   1_556  S
Zn95        O106   1.981       .  S
Zn95        O821   1.931   1_455  S
Zn96        O104   2.023       .  S
Zn96        O107   1.986       .  S
Zn96        O108   2.031       .  S
Zn96         O97   1.954       .  S
O97        Zn817   1.945       .  S
O97        Zn819   1.931       .  S
O98         C834   1.271       .  A
O99         C111   1.275       .  A
O100        C112   1.267       .  A
O101        C110   1.275       .  A
O102        C112   1.270       .  A
O103        C835   1.267   1_455  A
O104        C113   1.274       .  A
O105        C114   1.272   1_554  A
O106        C837   1.266       .  A
O107        C114   1.271       .  A
O108        C115   1.273       .  A
O109        C839   1.272   1_455  A
C110        O822   1.271       .  A
C110        C300   1.478       .  S
C111        O827   1.266       .  A
C111        C287   1.488       .  S
C112        C136   1.439       .  S
C113        O830   1.265       .  A
C113        C175   1.489       .  S
C114        C133   1.441       .  S
C115        O833   1.273       .  A
C115        C188   1.493       .  S
Zn116       O121   1.987       .  S
Zn116       O125   2.000   1_556  S
Zn116       O132   1.986       .  S
Zn116       O120   1.937       .  S
Zn117       O122   1.995   1_556  S
Zn117       O124   1.986       .  S
Zn117       O128   1.994       .  S
Zn117       O120   1.936       .  S
Zn118       O123   2.014       .  S
Zn118       O126   2.011       .  S
Zn118       O129   1.981       .  S
Zn118       O120   1.952   1_554  S
Zn119       O127   1.995       .  S
Zn119       O130   2.028       .  S
Zn119       O131   2.030       .  S
Zn119       O120   1.962       .  S
O121        C133   1.269       .  A
O122        C134   1.271       .  A
O123        C135   1.271       .  A
O124        C133   1.269       .  A
O125        C135   1.271       .  A
O126        C134   1.271       .  A
O127        C136   1.271       .  A
O128        C137   1.269       .  A
O129        C136   1.269   1_554  A
O130        C137   1.274       .  A
O131        C138   1.275       .  A
O132        C138   1.269       .  A
C134        C252   1.478       .  S
C135        C239   1.487       .  S
C137        C159   1.490       .  S
C138        C140   1.482       .  S
C139        C140   1.406       .  A
C139        C144   1.402       .  A
C139        H146   1.085       .  S
C140        C141   1.422       .  A
C141        C148   1.510       .  S
C141        C142   1.403       .  A
C142        C143   1.397       .  A
C142        H147   1.085       .  S
C143        C144   1.406       .  A
C144        C145   1.504       .  S
C145        H149   1.111       .  S
C145        H150   1.111       .  S
C145        H151   1.110       .  S
C148        H152   1.109       .  S
C148        H153   1.111       .  S
C148        H154   1.111       .  S
C155        C156   1.397       .  A
C155        C160   1.401       .  A
C155        H162   1.084       .  S
C156        C157   1.408       .  A
C157        C164   1.505       .  S
C157        C158   1.405       .  A
C158        C159   1.409       .  A
C158        H163   1.084       .  S
C159        C160   1.424       .  A
C160        C161   1.510       .  S
C161        H165   1.111       .  S
C161        H166   1.110       .  S
C161        H167   1.110       .  S
C164        H168   1.109       .  S
C164        H169   1.111       .  S
C164        H170   1.111       .  S
C171        C172   1.398       .  A
C171        C176   1.401       .  A
C171        H178   1.085       .  S
C172        C897   1.413       .  A
C173        C180   1.503       .  S
C173        C174   1.402       .  A
C173        C896   1.409       .  A
C174        C899   1.407   1_655  A
C174        H179   1.084       .  S
C175        C176   1.425       .  A
C175        C898   1.406       .  A
C176        C177   1.510       .  S
C177        H181   1.111       .  S
C177        H182   1.110       .  S
C177        H183   1.110       .  S
C180        H184   1.111       .  S
C180        H185   1.105       .  S
C180        H186   1.111       .  S
C187        C188   1.409       .  A
C187        C192   1.402       .  A
C187        H194   1.084       .  S
C188        C913   1.422       .  A
C189        C196   1.507       .  S
C189        C190   1.408       .  A
C189        C912   1.421       .  A
C190        C915   1.400       .  A
C190        H195   1.083       .  S
C191        C192   1.408       .  A
C191        C914   1.400       .  A
C192        C193   1.506       .  S
C193        H197   1.110       .  S
C193        H198   1.109       .  S
C193        H199   1.111       .  S
C196        H200   1.110       .  S
C196        H201   1.110       .  S
C196        H202   1.111       .  S
C203        C204   1.407       .  A
C203        C208   1.405       .  A
C203        H210   1.084       .  S
C204        C567   1.424       .  A
C205        C212   1.510       .  S
C205        C206   1.405       .  A
C205        C566   1.425   1_545  A
C206        C569   1.406   1_545  A
C206        H211   1.082       .  S
C207        C208   1.422       .  A
C207        C568   1.406       .  A
C208        C209   1.508       .  S
C209        H213   1.111       .  S
C209        H214   1.106       .  S
C209        H215   1.105       .  S
C212        H216   1.110       .  S
C212        H217   1.104       .  S
C212        H218   1.111       .  S
C219        C220   1.407       .  A
C219        C224   1.405       .  A
C219        H226   1.081       .  S
C220        C583   1.426       .  A
C221        C228   1.509       .  S
C221        C222   1.406       .  A
C221        C582   1.426   1_545  A
C222        C585   1.405   1_545  A
C222        H227   1.083       .  S
C223        C224   1.424       .  A
C223        C584   1.406       .  A
C224        C225   1.509       .  S
C225        H229   1.111       .  S
C225        H230   1.110       .  S
C225        H231   1.106       .  S
C228        H232   1.110       .  S
C228        H233   1.104       .  S
C228        H234   1.111   1_545  S
C235        C236   1.398       .  A
C235        C240   1.404       .  A
C235        H242   1.084       .  S
C236        C237   1.407       .  A
C237        C244   1.507       .  S
C237        C238   1.402       .  A
C238        C239   1.409       .  A
C238        H243   1.082       .  S
C239        C240   1.420       .  A
C240        C241   1.508       .  S
C241        H245   1.111       .  S
C241        H246   1.111       .  S
C241        H247   1.109       .  S
C244        H248   1.109       .  S
C244        H249   1.111       .  S
C244        H250   1.111       .  S
C251        C252   1.407       .  A
C251        C256   1.400       .  A
C251        H258   1.083       .  S
C252        C253   1.417       .  A
C253        C260   1.508       .  S
C253        C254   1.404       .  A
C254        C255   1.399       .  A
C254        H259   1.082       .  S
C255        C256   1.405       .  A
C256        C257   1.505       .  S
C257        H261   1.111       .  S
C257        H262   1.111       .  S
C257        H263   1.110       .  S
C260        H264   1.110       .  S
C260        H265   1.110       .  S
C260        H266   1.111       .  S
C267        C272   1.404       .  A
C267        C630   1.402       .  A
C267        H274   1.087       .  S
C268        C269   1.410       .  A
C268        C629   1.401   1_545  A
C269        C276   1.506       .  S
C269        C270   1.401       .  A
C270        C271   1.401   1_545  A
C270        H275   1.084       .  S
C271        C634   1.410       .  A
C272        C273   1.505       .  S
C272        C633   1.411       .  A
C273        H277   1.111       .  S
C273        H278   1.110       .  S
C273        H641   1.109       .  S
C276        H281   1.110       .  S
C276        H282   1.111       .  S
C276        H642   1.109       .  S
H279        C635   1.109       .  S
H280        C638   1.109       .  S
C283        C284   1.395       .  A
C283        C288   1.400       .  A
C283        H290   1.085       .  S
C284       C1009   1.409       .  A
C285        C292   1.504       .  S
C285        C286   1.406       .  A
C285       C1008   1.409       .  A
C286       C1011   1.408       .  A
C286        H291   1.085       .  S
C287        C288   1.424       .  A
C287       C1010   1.407       .  A
C288        C289   1.510       .  S
C289        H293   1.111       .  S
C289        H294   1.110       .  S
C289        H295   1.110       .  S
C292        H296   1.110       .  S
C292        H297   1.110       .  S
C292        H298   1.111       .  S
C299        C304   1.403       .  A
C299       C1024   1.405       .  A
C299        H306   1.084       .  S
C300        C301   1.418       .  A
C300       C1023   1.405       .  A
C301        C308   1.508       .  S
C301        C302   1.403       .  A
C302        C303   1.398       .  A
C302        H307   1.081       .  S
C303       C1028   1.406       .  A
C304        C305   1.504       .  S
C304       C1027   1.406       .  A
C305        H309   1.111       .  S
C305        H310   1.110       .  S
C305        H311   1.110   1_455  S
C308        H312   1.109       .  S
C308        H313   1.110       .  S
C308        H314   1.111       .  S
C315        C316   1.409       .  A
C315        C320   1.405       .  A
C315        H322   1.080       .  S
C316        C679   1.423       .  A
C317        C324   1.510       .  S
C317        C318   1.406       .  A
C317        C678   1.425   1_565  A
C318        C681   1.407   1_565  A
C318        H323   1.079       .  S
C319        C320   1.421       .  A
C319        C680   1.409       .  A
C320        C321   1.510       .  S
C321        H325   1.110       .  S
C321        H326   1.110       .  S
C321        H689   1.105       .  S
C324        H329   1.105       .  S
C324        H330   1.111   1_565  S
C324        H690   1.110       .  S
H327        C683   1.106       .  S
H328        C686   1.110       .  S
C331        C332   1.408       .  A
C331        C336   1.405       .  A
C331        H338   1.082       .  S
C332        C695   1.420       .  A
C333        C340   1.510       .  S
C333        C334   1.406       .  A
C333        C694   1.422       .  A
C334        C697   1.410       .  A
C334        H339   1.081       .  S
C335        C336   1.421       .  A
C335        C696   1.411       .  A
C336        C337   1.507       .  S
C337        H341   1.111       .  S
C337        H342   1.110       .  S
C337        H343   1.105       .  S
C340        H344   1.109       .  S
C340        H345   1.106       .  S
C340        H346   1.111       .  S
C347        C348   1.400   1_545  A
C347        C352   1.401       .  A
C347        H354   1.085   1_655  S
C348       C1435   1.408       .  A
C349        C356   1.506       .  S
C349        C350   1.401       .  A
C349       C1434   1.412       .  A
C350       C1075   1.402       .  A
C350        H355   1.085       .  S
C351       C1074   1.402   1_655  A
C351        C714   1.409       .  A
C352        C353   1.504       .  S
C352        C713   1.407   1_545  A
C353        H357   1.111       .  S
C353        H359   1.110       .  S
C353        H720   1.110   1_655  S
C356        H360   1.110       .  S
C356        H362   1.111       .  S
C356        H723   1.108       .  S
H358        C715   1.111       .  S
H361        C718   1.110       .  S
C363        C365   1.532   1_545  S
C363        C367   1.548   1_545  S
C363        C697   1.542       .  S
C364        C368   1.543   1_545  S
C364        C370   1.543   1_545  S
C364        C678   1.541       .  S
C365       C1092   1.397   1_455  A
C366        C377   1.378       .  A
C366       C1093   1.393   1_455  A
C367        C381   1.382       .  A
C367       C1094   1.401   1_455  A
C368       C1089   1.396       .  A
C369       C1090   1.395       .  A
C369        C375   1.375       .  A
C370       C1091   1.400       .  A
C370        C378   1.377       .  A
C371        H384   1.081       .  S
C371       N1096   1.356       .  A
N372       C1095   1.356   1_455  A
N372        C373   1.355       .  A
N372        C710   1.433   1_455  S
C373        H374   1.083       .  S
C375        H385   1.083       .  S
C375        N376   1.354       .  A
N376       C1101   1.355       .  A
N376        C665   1.429       .  S
C377        H383   1.083       .  S
C377       N1100   1.353       .  A
C378        H380   1.083       .  S
C378        N379   1.353       .  A
N379       C1105   1.354       .  A
N379        C646   1.428       .  S
C381        H382   1.084       .  S
C381       N1103   1.356       .  A
C386        C388   1.543       .  S
C386        C390   1.550   1_545  S
C386        C681   1.542       .  S
C387        C391   1.526       .  S
C387        C393   1.543   1_545  S
C387        C694   1.538       .  S
C388        C396   1.380   1_545  A
C388        C391   1.392       .  A
C389        C400   1.378       .  A
C389        C392   1.398       .  A
C390        C404   1.381       .  A
C390        C393   1.401       .  A
C391        C394   1.370   1_545  A
C392        C398   1.379       .  A
C393        C401   1.378       .  A
C394        H407   1.083       .  S
N395        C633   1.436       .  S
C396        H397   1.084       .  S
C398        H408   1.082       .  S
C398        N399   1.353       .  A
N399        C400   1.354       .  A
N399        C617   1.431       .  S
C400        H406   1.081       .  S
C401        H403   1.082       .  S
C401        N402   1.355       .  A
N402        C404   1.354       .  A
N402        C598   1.434       .  S
C404        H405   1.083       .  S
C409        C411   1.540       .  S
C409        C412   1.537       .  S
C409        C585   1.540       .  S
C410        C414   1.529       .  S
C410        C415   1.534       .  S
C410        C569   1.538       .  S
C411        C419   1.377       .  A
C411       C1138   1.393   1_455  A
C412        C423   1.376       .  A
C412       C1139   1.390   1_455  A
C413        C427   1.383       .  A
C413       C1140   1.403   1_455  A
C414       C1135   1.393       .  A
C414        C417   1.373       .  A
C415       C1136   1.391       .  A
C415        C421   1.377       .  A
C416       C1137   1.403       .  A
C416        C424   1.381       .  A
C417        H430   1.082       .  S
C417       N1142   1.354       .  A
N418       C1141   1.354       .  A
N418        C419   1.353   1_655  A
N418        C713   1.428       .  S
C419        H420   1.086       .  S
C421        H431   1.078       .  S
C421        N422   1.358       .  A
N422       C1147   1.358       .  A
N422        C534   1.437       .  S
C423        H429   1.083       .  S
C423       N1146   1.360   1_455  A
C424        H426   1.081       .  S
C424        N425   1.354       .  A
N425       C1151   1.356       .  A
N425        C553   1.436       .  S
C427        H428   1.083       .  S
C427       N1149   1.357   1_455  A
C432        C434   1.550   1_565  S
C432        C436   1.535       .  S
C432        C582   1.541       .  S
C433        C437   1.526   1_565  S
C433        C439   1.544       .  S
C433        C566   1.539       .  S
C434        C437   1.396       .  A
C435        C446   1.380       .  A
C435        C438   1.397       .  A
C436        C450   1.376       .  A
C436        C439   1.393       .  A
C438        C444   1.376       .  A
C439        C447   1.380       .  A
C440        H453   1.082       .  S
C440        N441   1.354       .  A
N441        C442   1.358       .  A
N441        C630   1.435       .  S
C442        H443   1.083       .  S
C444        H454   1.082       .  S
C444        N445   1.354       .  A
N445        C446   1.356       .  A
N445        C518   1.433       .  S
C446        H452   1.080       .  S
C447        H449   1.083       .  S
C447        N448   1.361       .  A
N448        C450   1.358       .  A
N448        C505   1.444       .  S
C450        H451   1.078       .  S
Zn455       O460   1.997   1_556  S
Zn455       O464   1.992       .  S
Zn455       O471   2.014       .  S
Zn455      O1183   1.942       .  S
Zn456       O461   2.031       .  S
Zn456       O463   2.021       .  S
Zn456       O467   1.996       .  S
Zn456       O459   1.966   1_554  S
Zn457       O462   1.977       .  S
Zn457       O465   1.986   1_556  S
Zn457       O468   1.971       .  S
Zn457      O1183   1.938       .  S
Zn458       O466   2.031       .  S
Zn458       O469   1.985       .  S
Zn458       O470   2.030       .  S
Zn458       O459   1.956       .  S
O459      Zn1179   1.946       .  S
O459      Zn1181   1.934       .  S
O460       C1196   1.271       .  A
O461        C473   1.273       .  A
O462        C474   1.268       .  A
O463        C472   1.273       .  A
O464        C474   1.270       .  A
O465       C1197   1.267   1_455  A
O466        C475   1.275       .  A
O467        C476   1.271   1_554  A
O468       C1199   1.265       .  A
O469        C476   1.270       .  A
O470        C477   1.274       .  A
O471       C1201   1.273   1_455  A
C472       O1184   1.271       .  A
C472        C662   1.480       .  S
C473       O1189   1.267       .  A
C473        C649   1.476       .  S
C474        C498   1.439       .  S
C475       O1192   1.267       .  A
C475        C537   1.494       .  S
C476        C495   1.441       .  S
C477       O1195   1.274       .  A
C477        C550   1.494       .  S
Zn478       O483   1.988       .  S
Zn478       O487   2.015   1_556  S
Zn478       O494   1.992       .  S
Zn478       O482   1.942       .  S
Zn479       O484   1.997   1_556  S
Zn479       O486   1.988       .  S
Zn479       O490   2.005       .  S
Zn479       O482   1.947       .  S
Zn480       O485   2.024       .  S
Zn480       O488   2.043       .  S
Zn480       O491   1.986       .  S
Zn480       O482   1.958   1_554  S
Zn481       O489   1.993       .  S
Zn481       O492   2.028       .  S
Zn481       O493   2.051       .  S
Zn481       O482   1.968       .  S
O483        C495   1.270       .  A
O484        C496   1.270       .  A
O485        C497   1.273       .  A
O486        C495   1.270       .  A
O487        C497   1.272       .  A
O488        C496   1.275       .  A
O489        C498   1.272       .  A
O490        C499   1.270       .  A
O491        C498   1.271   1_554  A
O492        C499   1.275       .  A
O493        C500   1.276       .  A
O494        C500   1.268       .  A
C496        C614   1.483       .  S
C497        C601   1.495       .  S
C499        C521   1.489       .  S
C500        C502   1.500       .  S
C501        C502   1.410       .  A
C501        C506   1.409       .  A
C501        H508   1.084       .  S
C502        C503   1.426       .  A
C503        C510   1.510       .  S
C503        C504   1.401       .  A
C504        C505   1.399       .  A
C504        H509   1.085       .  S
C505        C506   1.416       .  A
C506        C507   1.507       .  S
C507        H511   1.111       .  S
C507        H512   1.110       .  S
C507        H513   1.107       .  S
C510        H514   1.110       .  S
C510        H515   1.110       .  S
C510        H516   1.111       .  S
C517        C518   1.399       .  A
C517        C522   1.405       .  A
C517        H524   1.082       .  S
C518        C519   1.406       .  A
C519        C526   1.505       .  S
C519        C520   1.403       .  A
C520        C521   1.408       .  A
C520        H525   1.083       .  S
C521        C522   1.423       .  A
C522        C523   1.509       .  S
C523        H527   1.111       .  S
C523        H528   1.111       .  S
C523        H529   1.110       .  S
C526        H530   1.110       .  S
C526        H531   1.111       .  S
C526        H532   1.110       .  S
C533        C534   1.397       .  A
C533        C538   1.401       .  A
C533        H540   1.087       .  S
C534       C1259   1.412       .  A
C535        C542   1.505       .  S
C535       C1258   1.415       .  A
C535        C536   1.398       .  A
C536       C1261   1.404   1_655  A
C536        H541   1.084       .  S
C537       C1260   1.407       .  A
C537        C538   1.426       .  A
C538        C539   1.508       .  S
C539        H543   1.112       .  S
C539        H544   1.110       .  S
C539        H545   1.107       .  S
C542        H546   1.110       .  S
C542        H547   1.106       .  S
C542        H548   1.111       .  S
C549        C550   1.409       .  A
C549        C554   1.402       .  A
C549        H556   1.084       .  S
C550       C1275   1.422       .  A
C551        C558   1.507       .  S
C551       C1274   1.422       .  A
C551        C552   1.410       .  A
C552       C1277   1.401       .  A
C552        H557   1.083       .  S
C553       C1276   1.400       .  A
C553        C554   1.407       .  A
C554        C555   1.506       .  S
C555        H559   1.110       .  S
C555        H560   1.109       .  S
C555        H561   1.111       .  S
C558        H562   1.110       .  S
C558        H563   1.110       .  S
C558        H564   1.111       .  S
C565        C566   1.406       .  A
C565        C570   1.405       .  A
C565        H572   1.083       .  S
C567        C574   1.510       .  S
C567        C568   1.404       .  A
C568        H573   1.082       .  S
C569        C570   1.424       .  A
C570        C571   1.509       .  S
C571        H575   1.111       .  S
C571        H576   1.107       .  S
C571        H577   1.104       .  S
C574        H578   1.110       .  S
C574        H579   1.104       .  S
C574        H580   1.111       .  S
C581        C582   1.409       .  A
C581        C586   1.405       .  A
C581        H588   1.081       .  S
C583        C590   1.509       .  S
C583        C584   1.406       .  A
C584        H589   1.083       .  S
C585        C586   1.422       .  A
C586        C587   1.509       .  S
C587        H591   1.111       .  S
C587        H592   1.110       .  S
C587        H593   1.106       .  S
C590        H594   1.110       .  S
C590        H595   1.104       .  S
C590        H596   1.111       .  S
C597        C598   1.397       .  A
C597        C602   1.404       .  A
C597        H604   1.085       .  S
C598        C599   1.408       .  A
C599        C606   1.507       .  S
C599        C600   1.405       .  A
C600        C601   1.411       .  A
C600        H605   1.082       .  S
C601        C602   1.422       .  A
C602        C603   1.508       .  S
C603        H607   1.111       .  S
C603        H608   1.110       .  S
C603        H609   1.110       .  S
C606        H610   1.109       .  S
C606        H611   1.111       .  S
C606        H612   1.110       .  S
C613        C614   1.408       .  A
C613        C618   1.403       .  A
C613        H620   1.083       .  S
C614        C615   1.416       .  A
C615        C622   1.506       .  S
C615        C616   1.406       .  A
C616        C617   1.400       .  A
C616        H621   1.082       .  S
C617        C618   1.405       .  A
C618        C619   1.505       .  S
C619        H623   1.111       .  S
C619        H624   1.110       .  S
C619        H625   1.110       .  S
C622        H626   1.109       .  S
C622        H627   1.110       .  S
C622        H628   1.111       .  S
C629        C634   1.402       .  A
C629        H636   1.085       .  S
C630        C631   1.411       .  A
C631        C638   1.505       .  S
C631        C632   1.404       .  A
C632        C633   1.403       .  A
C632        H637   1.084       .  S
C634        C635   1.505       .  S
C635        H639   1.111       .  S
C635        H640   1.110       .  S
C638        H643   1.111       .  S
C638        H644   1.111       .  S
C645        C646   1.395       .  A
C645        C650   1.399       .  A
C645        H652   1.084       .  S
C646       C1371   1.408       .  A
C647        C654   1.503       .  S
C647       C1370   1.409       .  A
C647        C648   1.405       .  A
C648       C1373   1.402   1_455  A
C648        H653   1.087       .  S
C649       C1372   1.404       .  A
C649        C650   1.419       .  A
C650        C651   1.507       .  S
C651        H655   1.111       .  S
C651        H656   1.111       .  S
C651        H657   1.107       .  S
C654        H658   1.110       .  S
C654        H659   1.109       .  S
C654        H660   1.111       .  S
C661       C1386   1.405       .  A
C661        C666   1.403       .  A
C661        H668   1.084       .  S
C662       C1385   1.406       .  A
C662        C663   1.419       .  A
C663        C670   1.508       .  S
C663        C664   1.402       .  A
C664        C665   1.397       .  A
C664        H669   1.082       .  S
C665       C1390   1.406       .  A
C666        C667   1.504       .  S
C666       C1389   1.405       .  A
C667        H671   1.111       .  S
C667        H672   1.111       .  S
C667        H673   1.110   1_455  S
C670        H674   1.109       .  S
C670        H675   1.110       .  S
C670        H676   1.111       .  S
C677        C678   1.409       .  A
C677        C682   1.406       .  A
C677        H684   1.081       .  S
C679        C686   1.510       .  S
C679        C680   1.407       .  A
C680        H685   1.076       .  S
C681        C682   1.421       .  A
C682        C683   1.509       .  S
C683        H687   1.110       .  S
C683        H688   1.110       .  S
C686        H691   1.105       .  S
C686        H692   1.110       .  S
C693        C694   1.407   1_565  A
C693        C698   1.406       .  A
C693        H700   1.083       .  S
C695        C702   1.509       .  S
C695        C696   1.404       .  A
C696        H701   1.080       .  S
C697        C698   1.422   1_545  A
C698        C699   1.507       .  S
C699        H703   1.111       .  S
C699        H704   1.110       .  S
C699        H705   1.105       .  S
C702        H706   1.109       .  S
C702        H707   1.106       .  S
C702        H708   1.111       .  S
C709        C710   1.402       .  A
C709        C714   1.401       .  A
C709        H716   1.083       .  S
C710       C1073   1.412   1_655  A
C711        C718   1.506       .  S
C711       C1072   1.410       .  A
C711        C712   1.403       .  A
C712       C1437   1.402       .  A
C712        H717   1.082       .  S
C713       C1436   1.401       .  A
C714        C715   1.505       .  S
C715        H719   1.111       .  S
C715        H721   1.109       .  S
C718        H722   1.108       .  S
C718        H724   1.111       .  S
C725        C727   1.531       .  S
C725        C729   1.547       .  S
C725       C1090   1.543       .  S
C725       C1059   1.545       .  S
C726        C730   1.545       .  S
C726        C732   1.544       .  S
C726       C1093   1.535       .  S
C726       C1040   1.542       .  S
C727       C1097   1.371       .  A
C728       C1087   1.542   1_545  S
C728        C739   1.380       .  A
C729        C743   1.378       .  A
C730       C1095   1.380       .  A
C731       C1088   1.533       .  S
C731        C737   1.375       .  A
C732        C740   1.378       .  A
C733       C1092   1.379       .  A
C733        H746   1.084       .  S
N734        C735   1.355       .  A
N734       C1072   1.431       .  S
C735       C1089   1.373       .  A
C735        H736   1.082       .  S
C737        H747   1.083       .  S
C737        N738   1.354   1_655  A
N738       C1027   1.429       .  S
C739        H745   1.083       .  S
C740        H742   1.083       .  S
C740        N741   1.355       .  A
N741       C1008   1.433       .  S
C743        H744   1.082       .  S
C748        C750   1.542       .  S
C748        C752   1.551       .  S
C748       C1113   1.533       .  S
C748       C1043   1.543       .  S
C749        C753   1.528       .  S
C749        C755   1.546       .  S
C749       C1116   1.537       .  S
C749       C1056   1.542       .  S
C750        C758   1.380       .  A
C750        C753   1.393       .  A
C751       C1110   1.537       .  S
C751        C762   1.380       .  A
C751        C754   1.396       .  A
C752        C766   1.382       .  A
C752        C755   1.402       .  A
C753        C756   1.372       .  A
C754       C1111   1.537       .  S
C754        C760   1.378       .  A
C755        C763   1.380       .  A
C756        H769   1.084       .  S
C756       N1119   1.354       .  A
N757       C1118   1.355       .  A
N757       C1120   1.357       .  A
N757        C995   1.434       .  S
C758        H759   1.084       .  S
C758       N1119   1.357       .  A
C760        H770   1.083       .  S
C760        N761   1.353       .  A
N761        C762   1.356       .  A
N761        C979   1.432       .  S
C762        H768   1.081       .  S
C763        H765   1.082       .  S
C763        N764   1.357       .  A
N764        C766   1.355       .  A
N764        C960   1.438       .  S
C766        H767   1.082       .  S
C771        C773   1.537       .  S
C771       C1137   1.554       .  S
C771        C774   1.535       .  S
C771        C947   1.542       .  S
C772        C776   1.528       .  S
C772       C1140   1.550       .  S
C772        C777   1.534       .  S
C772        C931   1.535       .  S
C773        C781   1.373       .  A
C774        C785   1.375       .  A
C775       C1133   1.552   1_545  S
C775        C789   1.381       .  A
C776        C779   1.374       .  A
C777        C783   1.376       .  A
C778       C1134   1.546   1_545  S
C778        C786   1.380       .  A
C779        H792   1.081       .  S
N780        C781   1.354       .  A
N780       C1075   1.432       .  S
C781        H782   1.084       .  S
C783        H793   1.082       .  S
C783        N784   1.356       .  A
N784        C896   1.434       .  S
C785        H791   1.083       .  S
C786        H788   1.083       .  S
C786        N787   1.354       .  A
N787        C915   1.435       .  S
C789        H790   1.084       .  S
C794        C796   1.551       .  S
C794        C798   1.535       .  S
C794       C1159   1.544       .  S
C794        C944   1.541       .  S
C795        C799   1.525       .  S
C795        C801   1.541       .  S
C795       C1162   1.538       .  S
C795        C928   1.536       .  S
C796       C1166   1.384       .  A
C796        C799   1.396       .  A
C797       C1156   1.546   1_545  S
C797        C808   1.379       .  A
C797        C800   1.398       .  A
C798        C812   1.375       .  A
C798        C801   1.392       .  A
C799       C1164   1.369       .  A
C800       C1157   1.538   1_545  S
C800        C806   1.376       .  A
C801        C809   1.378       .  A
C802       C1161   1.373       .  A
C802        H815   1.082       .  S
C802        N803   1.353       .  A
N803        C804   1.358       .  A
N803        C992   1.433       .  S
C804       C1158   1.384       .  A
C804        H805   1.082       .  S
C806        H816   1.084       .  S
C806        N807   1.353       .  A
N807        C808   1.355       .  A
N807        C880   1.430       .  S
C808        H814   1.079       .  S
C809        H811   1.082       .  S
C809        N810   1.361       .  A
N810        C812   1.358       .  A
N810        C867   1.443       .  S
C812        H813   1.081       .  S
Zn817       O822   2.001   1_556  S
Zn817       O826   1.998       .  S
Zn817       O833   2.010       .  S
Zn818       O823   2.037       .  S
Zn818       O825   2.024       .  S
Zn818       O829   1.997       .  S
Zn818       O821   1.967   1_554  S
Zn819       O824   1.964       .  S
Zn819       O827   1.975   1_556  S
Zn819       O830   1.971       .  S
Zn820       O828   2.039       .  S
Zn820       O831   1.997       .  S
Zn820       O832   2.039       .  S
Zn820       O821   1.959       .  S
O823        C835   1.274       .  A
O824        C836   1.266       .  A
O825        C834   1.274   1_655  A
O826        C836   1.271       .  A
O828        C837   1.276   1_655  A
O829        C838   1.272   1_554  A
O831        C838   1.272       .  A
O832        C839   1.275       .  A
C834       C1024   1.477       .  S
C835       C1011   1.488       .  S
C836        C860   1.439       .  S
C837        C899   1.493       .  S
C838        C857   1.443       .  S
C839        C912   1.493       .  S
Zn840       O845   1.984       .  S
Zn840       O849   2.017   1_556  S
Zn840       O856   1.993       .  S
Zn840       O844   1.942       .  S
Zn841       O846   2.000   1_556  S
Zn841       O848   1.997       .  S
Zn841       O852   2.010       .  S
Zn841       O844   1.947       .  S
Zn842       O847   2.035       .  S
Zn842       O850   2.039       .  S
Zn842       O853   1.985       .  S
Zn842       O844   1.960   1_554  S
Zn843       O851   1.993       .  S
Zn843       O854   2.029       .  S
Zn843       O855   2.037       .  S
Zn843       O844   1.969       .  S
O845        C857   1.270       .  A
O846        C858   1.271       .  A
O847        C859   1.274       .  A
O848        C857   1.271       .  A
O849        C859   1.272       .  A
O850        C858   1.274       .  A
O851        C860   1.271       .  A
O852        C861   1.271       .  A
O853        C860   1.271   1_554  A
O854        C861   1.274       .  A
O855        C862   1.275       .  A
O856        C862   1.269       .  A
C858        C976   1.487       .  S
C859        C963   1.498       .  S
C861        C883   1.482       .  S
C862        C864   1.497       .  S
C863        C864   1.409       .  A
C863        C868   1.407       .  A
C863        H870   1.083       .  S
C864        C865   1.424       .  A
C865        C872   1.510       .  S
C865        C866   1.401       .  A
C866        C867   1.400       .  A
C866        H871   1.084       .  S
C867        C868   1.415       .  A
C868        C869   1.508       .  S
C869        H873   1.110       .  S
C869        H874   1.110       .  S
C869        H875   1.107       .  S
C872        H876   1.111       .  S
C872        H877   1.110       .  S
C872        H878   1.111       .  S
C879        C880   1.398       .  A
C879        C884   1.403       .  A
C879        H886   1.082       .  S
C880        C881   1.405       .  A
C881        C888   1.504       .  S
C881        C882   1.405       .  A
C882        C883   1.407       .  A
C882        H887   1.082       .  S
C883        C884   1.419       .  A
C884        C885   1.508       .  S
C885        H889   1.111       .  S
C885        H890   1.111       .  S
C885        H891   1.109       .  S
C888        H892   1.111       .  S
C888        H893   1.111       .  S
C888        H894   1.110       .  S
C895        C896   1.395   1_455  A
C895        C900   1.402       .  A
C895        H902   1.085       .  S
C897        C904   1.504       .  S
C897        C898   1.400       .  A
C898        H903   1.083       .  S
C899        C900   1.427       .  A
C900        C901   1.508       .  S
C901        H905   1.111       .  S
C901        H906   1.110       .  S
C901        H907   1.108       .  S
C904        H908   1.110       .  S
C904        H909   1.105       .  S
C904        H910   1.111       .  S
C911        C912   1.410   1_455  A
C911        C916   1.402       .  A
C911        H918   1.084       .  S
C913        C920   1.507       .  S
C913        C914   1.409       .  A
C914        H919   1.083       .  S
C915        C916   1.407   1_655  A
C916        C917   1.507       .  S
C917        H921   1.111       .  S
C917        H922   1.109       .  S
C917        H923   1.111   1_455  S
C920        H924   1.110       .  S
C920        H925   1.110       .  S
C920        H926   1.111       .  S
C927        C928   1.405       .  A
C927        C932   1.404       .  A
C927        H934   1.084       .  S
C928       C1291   1.423       .  A
C929        C936   1.510       .  S
C929       C1290   1.423   1_545  A
C929        C930   1.403       .  A
C930       C1293   1.406   1_545  A
C930        H935   1.082       .  S
C931       C1292   1.406       .  A
C931        C932   1.424       .  A
C932        C933   1.508       .  S
C933        H937   1.111       .  S
C933        H938   1.107       .  S
C933        H939   1.104       .  S
C936        H940   1.110       .  S
C936        H941   1.104       .  S
C936        H942   1.111       .  S
C943        C944   1.407       .  A
C943        C948   1.405       .  A
C943        H950   1.082       .  S
C944       C1307   1.426       .  A
C945        C952   1.510       .  S
C945       C1306   1.426   1_545  A
C945        C946   1.407       .  A
C946       C1309   1.407   1_545  A
C946        H951   1.083       .  S
C947       C1308   1.406       .  A
C947        C948   1.423       .  A
C948        C949   1.510       .  S
C949        H953   1.111       .  S
C949        H954   1.110       .  S
C949        H955   1.105       .  S
C952        H956   1.110       .  S
C952        H957   1.104       .  S
C952        H958   1.111   1_545  S
C959        C960   1.398       .  A
C959        C964   1.406       .  A
C959        H966   1.085       .  S
C960        C961   1.410       .  A
C961        C968   1.507       .  S
C961        C962   1.406       .  A
C962        C963   1.411       .  A
C962        H967   1.083       .  S
C963        C964   1.422       .  A
C964        C965   1.507       .  S
C965        H969   1.111       .  S
C965        H970   1.110       .  S
C965        H971   1.110       .  S
C968        H972   1.109       .  S
C968        H973   1.111       .  S
C968        H974   1.111       .  S
C975        C976   1.409       .  A
C975        C980   1.402       .  A
C975        H982   1.082       .  S
C976        C977   1.418       .  A
C977        C984   1.507       .  S
C977        C978   1.408       .  A
C978        C979   1.401       .  A
C978        H983   1.081       .  S
C979        C980   1.405       .  A
C980        C981   1.505       .  S
C981        H985   1.111       .  S
C981        H986   1.111       .  S
C981        H987   1.110       .  S
C984        H988   1.109       .  S
C984        H989   1.110       .  S
C984        H990   1.111       .  S
C991       C1354   1.401       .  A
C991        C996   1.403       .  A
C991        H998   1.086       .  S
C992       C1353   1.401       .  A
C992        C993   1.409   1_565  A
C993       C1000   1.505       .  S
C993        C994   1.404       .  A
C994        C995   1.402   1_545  A
C994        H999   1.083       .  S
C995       C1358   1.410       .  A
C996        C997   1.505       .  S
C996       C1357   1.410       .  A
C997       H1001   1.111       .  S
C997       H1002   1.111       .  S
C997       H1365   1.109       .  S
C1000      H1366   1.110       .  S
C1000      H1005   1.111       .  S
C1000      H1006   1.110       .  S
H1003      C1359   1.109       .  S
H1004      C1362   1.109       .  S
C1007      C1008   1.395   1_455  A
C1007      C1012   1.400       .  A
C1007      H1014   1.084       .  S
C1009      C1016   1.504       .  S
C1009      C1010   1.406       .  A
C1010      H1015   1.086       .  S
C1011      C1012   1.423   1_655  A
C1012      C1013   1.509       .  S
C1013      H1017   1.111       .  S
C1013      H1018   1.110   1_455  S
C1013      H1019   1.109       .  S
C1016      H1020   1.109       .  S
C1016      H1021   1.110       .  S
C1016      H1022   1.111       .  S
C1023      C1028   1.403       .  A
C1023      H1030   1.085       .  S
C1024      C1025   1.417       .  A
C1025      C1032   1.508   1_455  S
C1025      C1026   1.402       .  A
C1026      C1027   1.398       .  A
C1026      H1031   1.083   1_455  S
C1028      C1029   1.504       .  S
C1029      H1033   1.111       .  S
C1029      H1034   1.111       .  S
C1029      H1035   1.110       .  S
C1032      H1036   1.110   1_655  S
C1032      H1037   1.110       .  S
C1032      H1038   1.111       .  S
C1039      C1040   1.409       .  A
C1039      C1044   1.406       .  A
C1039      H1046   1.081       .  S
C1040      C1403   1.424       .  A
C1041      C1048   1.510       .  S
C1041      C1402   1.424   1_565  A
C1041      C1042   1.408       .  A
C1042      C1405   1.410   1_565  A
C1042      H1047   1.077       .  S
C1043      C1404   1.408       .  A
C1043      C1044   1.422       .  A
C1044      C1045   1.509       .  S
C1045      H1049   1.110       .  S
C1045      H1050   1.110       .  S
C1045      H1413   1.106       .  S
C1048      H1414   1.110       .  S
C1048      H1053   1.105       .  S
C1048      H1054   1.110   1_565  S
H1051      C1407   1.105       .  S
H1052      C1410   1.110       .  S
C1055      C1056   1.407       .  A
C1055      C1060   1.408       .  A
C1055      H1062   1.083       .  S
C1056      C1419   1.423       .  A
C1057      C1064   1.510       .  S
C1057      C1418   1.421       .  A
C1057      C1058   1.406       .  A
C1058      C1421   1.410   1_545  A
C1058      H1063   1.080       .  S
C1059      C1420   1.410       .  A
C1059      C1060   1.423       .  A
C1060      C1061   1.508       .  S
C1061      H1065   1.111       .  S
C1061      H1066   1.110       .  S
C1061      H1067   1.105       .  S
C1064      H1068   1.110       .  S
C1064      H1069   1.106       .  S
C1064      H1070   1.111       .  S
C1071      C1072   1.401   1_545  A
C1071      C1076   1.400       .  A
C1071      H1078   1.083       .  S
C1073      C1080   1.506       .  S
C1073      C1074   1.403       .  A
C1074      H1079   1.083       .  S
C1075      C1438   1.412       .  A
C1076      C1077   1.505       .  S
C1076      C1437   1.409   1_545  A
C1077      H1081   1.111       .  S
C1077      H1444   1.111       .  S
C1077      H1083   1.108       .  S
C1080      H1084   1.108       .  S
C1080      H1447   1.110       .  S
C1080      H1086   1.111       .  S
H1082      C1439   1.108       .  S
H1085      C1442   1.110       .  S
C1087      C1089   1.532       .  S
C1087      C1091   1.545       .  S
C1087      C1421   1.541       .  S
C1088      C1092   1.544   1_545  S
C1088      C1094   1.540   1_545  S
C1088      C1402   1.543       .  S
C1090      C1101   1.379       .  A
C1091      C1105   1.378       .  A
C1093      C1099   1.377       .  A
C1094      C1102   1.374       .  A
C1095      H1108   1.083       .  S
N1096      C1097   1.355       .  A
N1096      C1434   1.432       .  S
C1097      H1098   1.084       .  S
C1099      H1109   1.081       .  S
C1099      N1100   1.355   1_655  A
N1100      C1389   1.429       .  S
C1101      H1107   1.087       .  S
C1102      H1104   1.083       .  S
C1102      N1103   1.352   1_655  A
N1103      C1370   1.431       .  S
C1105      H1106   1.082       .  S
C1110      C1112   1.547   1_545  S
C1110      C1114   1.551   1_545  S
C1110      C1405   1.542       .  S
C1111      C1115   1.530   1_545  S
C1111      C1117   1.545   1_545  S
C1111      C1418   1.538       .  S
C1112      C1120   1.382       .  A
C1112      C1115   1.394       .  A
C1113      C1124   1.376       .  A
C1113      C1116   1.400       .  A
C1114      C1128   1.382       .  A
C1114      C1117   1.401       .  A
C1115      C1118   1.375       .  A
C1116      C1122   1.378       .  A
C1117      C1125   1.380       .  A
C1118      H1131   1.083       .  S
N1119      C1357   1.432       .  S
C1120      H1121   1.085       .  S
C1122      H1132   1.085       .  S
C1122      N1123   1.351       .  A
N1123      C1124   1.353       .  A
N1123      C1341   1.427       .  S
C1124      H1130   1.080       .  S
C1125      H1127   1.082       .  S
C1125      N1126   1.354       .  A
N1126      C1128   1.355       .  A
N1126      C1322   1.434       .  S
C1128      H1129   1.083       .  S
C1133      C1135   1.541       .  S
C1133      C1136   1.534       .  S
C1133      C1309   1.543       .  S
C1134      C1138   1.530       .  S
C1134      C1139   1.531       .  S
C1134      C1293   1.534       .  S
C1135      C1143   1.378       .  A
C1136      C1147   1.374       .  A
C1137      C1151   1.382       .  A
C1138      C1141   1.375       .  A
C1139      C1145   1.373       .  A
C1140      C1148   1.383       .  A
C1141      H1154   1.082       .  S
N1142      C1143   1.355       .  A
N1142      C1437   1.431       .  S
C1143      H1144   1.087       .  S
C1145      H1155   1.078       .  S
C1145      N1146   1.357       .  A
N1146      C1258   1.439       .  S
C1147      H1153   1.084       .  S
C1148      H1150   1.080       .  S
C1148      N1149   1.356       .  A
N1149      C1277   1.438       .  S
C1151      H1152   1.085       .  S
C1156      C1158   1.548       .  S
C1156      C1160   1.533       .  S
C1156      C1306   1.542       .  S
C1157      C1161   1.529       .  S
C1157      C1163   1.541       .  S
C1157      C1290   1.536       .  S
C1158      C1161   1.396       .  A
C1159      C1170   1.379       .  A
C1159      C1162   1.396       .  A
C1160      C1174   1.373       .  A
C1160      C1163   1.396       .  A
C1162      C1168   1.374       .  A
C1163      C1171   1.380       .  A
C1164      H1177   1.082       .  S
C1164      N1165   1.352       .  A
N1165      C1166   1.359       .  A
N1165      C1354   1.432       .  S
C1166      H1167   1.083       .  S
C1168      H1178   1.082       .  S
C1168      N1169   1.353       .  A
N1169      C1170   1.355       .  A
N1169      C1242   1.430       .  S
C1170      H1176   1.083       .  S
C1171      H1173   1.082       .  S
C1171      N1172   1.355       .  A
N1172      C1174   1.352       .  A
N1172      C1229   1.426       .  S
C1174      H1175   1.084       .  S
Zn1179     O1184   2.006   1_556  S
Zn1179     O1188   2.002       .  S
Zn1179     O1195   2.013       .  S
Zn1180     O1185   2.040       .  S
Zn1180     O1187   2.026       .  S
Zn1180     O1191   2.000       .  S
Zn1180     O1183   1.963   1_654  S
Zn1181     O1186   1.971       .  S
Zn1181     O1189   1.979   1_556  S
Zn1181     O1192   1.987       .  S
Zn1182     O1190   2.015       .  S
Zn1182     O1193   1.983       .  S
Zn1182     O1194   2.039       .  S
Zn1182     O1183   1.953   1_655  S
O1185      C1197   1.274       .  A
O1186      C1198   1.267       .  A
O1187      C1196   1.275   1_655  A
O1188      C1198   1.272       .  A
O1190      C1199   1.274   1_655  A
O1191      C1200   1.272   1_554  A
O1193      C1200   1.270       .  A
O1194      C1201   1.274       .  A
C1196      C1386   1.479       .  S
C1197      C1373   1.473       .  S
C1198      C1222   1.441       .  S
C1199      C1261   1.488       .  S
C1200      C1219   1.441       .  S
C1201      C1274   1.496       .  S
Zn1202     O1207   1.991       .  S
Zn1202     O1211   2.004   1_556  S
Zn1202     O1218   1.984       .  S
Zn1202     O1206   1.938       .  S
Zn1203     O1208   1.992   1_556  S
Zn1203     O1210   1.982       .  S
Zn1203     O1214   1.991       .  S
Zn1203     O1206   1.938       .  S
Zn1204     O1209   2.025       .  S
Zn1204     O1212   2.013       .  S
Zn1204     O1215   1.990       .  S
Zn1204     O1206   1.949   1_554  S
Zn1205     O1213   1.991       .  S
Zn1205     O1216   2.014       .  S
Zn1205     O1217   2.016       .  S
Zn1205     O1206   1.961       .  S
O1207      C1219   1.270       .  A
O1208      C1220   1.270       .  A
O1209      C1221   1.273       .  A
O1210      C1219   1.268       .  A
O1211      C1221   1.271       .  A
O1212      C1220   1.272       .  A
O1213      C1222   1.270       .  A
O1214      C1223   1.269       .  A
O1215      C1222   1.270   1_554  A
O1216      C1223   1.272       .  A
O1217      C1224   1.273       .  A
O1218      C1224   1.269       .  A
C1220      C1338   1.480       .  S
C1221      C1325   1.491       .  S
C1223      C1245   1.483       .  S
C1224      C1226   1.471       .  S
C1225      C1226   1.403       .  A
C1225      C1230   1.402       .  A
C1225      H1232   1.085       .  S
C1226      C1227   1.417       .  A
C1227      C1234   1.510       .  S
C1227      C1228   1.400       .  A
C1228      C1229   1.396       .  A
C1228      H1233   1.085       .  S
C1229      C1230   1.406       .  A
C1230      C1231   1.504       .  S
C1231      H1235   1.111       .  S
C1231      H1236   1.110       .  S
C1231      H1237   1.110       .  S
C1234      H1238   1.109       .  S
C1234      H1239   1.111       .  S
C1234      H1240   1.111       .  S
C1241      C1242   1.397       .  A
C1241      C1246   1.400       .  A
C1241      H1248   1.082       .  S
C1242      C1243   1.407       .  A
C1243      C1250   1.505       .  S
C1243      C1244   1.404       .  A
C1244      C1245   1.408       .  A
C1244      H1249   1.084       .  S
C1245      C1246   1.421       .  A
C1246      C1247   1.510       .  S
C1247      H1251   1.110       .  S
C1247      H1252   1.111       .  S
C1247      H1253   1.110       .  S
C1250      H1254   1.109       .  S
C1250      H1255   1.111       .  S
C1250      H1256   1.111       .  S
C1257      C1258   1.400   1_455  A
C1257      C1262   1.402       .  A
C1257      H1264   1.085       .  S
C1259      C1266   1.504       .  S
C1259      C1260   1.403       .  A
C1260      H1265   1.084       .  S
C1261      C1262   1.424       .  A
C1262      C1263   1.510       .  S
C1263      H1267   1.111       .  S
C1263      H1268   1.110       .  S
C1263      H1269   1.110       .  S
C1266      H1270   1.111       .  S
C1266      H1271   1.106       .  S
C1266      H1272   1.111       .  S
C1273      C1274   1.409   1_455  A
C1273      C1278   1.404       .  A
C1273      H1280   1.085       .  S
C1275      C1282   1.507       .  S
C1275      C1276   1.410       .  A
C1276      H1281   1.081       .  S
C1277      C1278   1.407   1_655  A
C1278      C1279   1.506       .  S
C1279      H1283   1.111       .  S
C1279      H1284   1.109       .  S
C1279      H1285   1.111   1_455  S
C1282      H1286   1.110       .  S
C1282      H1287   1.110       .  S
C1282      H1288   1.111       .  S
C1289      C1290   1.406       .  A
C1289      C1294   1.403       .  A
C1289      H1296   1.084       .  S
C1291      C1298   1.510       .  S
C1291      C1292   1.403       .  A
C1292      H1297   1.082       .  S
C1293      C1294   1.423       .  A
C1294      C1295   1.509       .  S
C1295      H1299   1.111       .  S
C1295      H1300   1.106       .  S
C1295      H1301   1.104       .  S
C1298      H1302   1.110       .  S
C1298      H1303   1.105       .  S
C1298      H1304   1.111       .  S
C1305      C1306   1.408       .  A
C1305      C1310   1.406       .  A
C1305      H1312   1.081       .  S
C1307      C1314   1.509       .  S
C1307      C1308   1.407       .  A
C1308      H1313   1.081       .  S
C1309      C1310   1.423       .  A
C1310      C1311   1.509       .  S
C1311      H1315   1.111       .  S
C1311      H1316   1.110       .  S
C1311      H1317   1.106       .  S
C1314      H1318   1.110       .  S
C1314      H1319   1.104       .  S
C1314      H1320   1.111       .  S
C1321      C1322   1.398       .  A
C1321      C1326   1.405       .  A
C1321      H1328   1.085       .  S
C1322      C1323   1.408       .  A
C1323      C1330   1.507       .  S
C1323      C1324   1.404       .  A
C1324      C1325   1.410       .  A
C1324      H1329   1.082       .  S
C1325      C1326   1.421       .  A
C1326      C1327   1.508       .  S
C1327      H1331   1.111       .  S
C1327      H1332   1.111       .  S
C1327      H1333   1.109       .  S
C1330      H1334   1.109       .  S
C1330      H1335   1.111       .  S
C1330      H1336   1.111       .  S
C1337      C1338   1.409       .  A
C1337      C1342   1.401       .  A
C1337      H1344   1.083       .  S
C1338      C1339   1.418       .  A
C1339      C1346   1.508       .  S
C1339      C1340   1.402       .  A
C1340      C1341   1.397       .  A
C1340      H1345   1.082       .  S
C1341      C1342   1.404       .  A
C1342      C1343   1.506       .  S
C1343      H1347   1.111       .  S
C1343      H1348   1.111       .  S
C1343      H1349   1.110       .  S
C1346      H1350   1.110       .  S
C1346      H1351   1.110       .  S
C1346      H1352   1.111       .  S
C1353      C1358   1.404       .  A
C1353      H1360   1.087       .  S
C1354      C1355   1.412       .  A
C1355      C1362   1.506       .  S
C1355      C1356   1.402       .  A
C1356      C1357   1.401       .  A
C1356      H1361   1.085       .  S
C1358      C1359   1.504       .  S
C1359      H1363   1.111       .  S
C1359      H1364   1.110       .  S
C1362      H1367   1.110       .  S
C1362      H1368   1.111       .  S
C1369      C1370   1.398   1_655  A
C1369      C1374   1.401       .  A
C1369      H1376   1.084       .  S
C1371      C1378   1.503       .  S
C1371      C1372   1.405       .  A
C1372      H1377   1.084       .  S
C1373      C1374   1.416       .  A
C1374      C1375   1.508       .  S
C1375      H1379   1.111       .  S
C1375      H1380   1.110       .  S
C1375      H1381   1.109       .  S
C1378      H1382   1.110       .  S
C1378      H1383   1.110       .  S
C1378      H1384   1.111       .  S
C1385      C1390   1.404       .  A
C1385      H1392   1.084       .  S
C1386      C1387   1.419       .  A
C1387      C1394   1.509       .  S
C1387      C1388   1.403       .  A
C1388      C1389   1.397       .  A
C1388      H1393   1.082       .  S
C1390      C1391   1.504       .  S
C1391      H1395   1.111       .  S
C1391      H1396   1.110       .  S
C1391      H1397   1.110       .  S
C1394      H1398   1.110       .  S
C1394      H1399   1.110   1_455  S
C1394      H1400   1.111       .  S
C1401      C1402   1.408       .  A
C1401      C1406   1.405       .  A
C1401      H1408   1.081       .  S
C1403      C1410   1.510       .  S
C1403      C1404   1.406       .  A
C1404      H1409   1.079       .  S
C1405      C1406   1.421       .  A
C1406      C1407   1.509       .  S
C1407      H1411   1.110       .  S
C1407      H1412   1.110       .  S
C1410      H1415   1.105       .  S
C1410      H1416   1.110       .  S
C1417      C1418   1.407   1_565  A
C1417      C1422   1.406       .  A
C1417      H1424   1.081       .  S
C1419      C1426   1.509       .  S
C1419      C1420   1.408       .  A
C1420      H1425   1.081       .  S
C1421      C1422   1.423       .  A
C1422      C1423   1.508       .  S
C1423      H1427   1.111       .  S
C1423      H1428   1.110       .  S
C1423      H1429   1.105       .  S
C1426      H1430   1.109       .  S
C1426      H1431   1.106       .  S
C1426      H1432   1.111       .  S
C1433      C1434   1.400       .  A
C1433      C1438   1.399       .  A
C1433      H1440   1.085       .  S
C1435      C1442   1.504       .  S
C1435      C1436   1.403       .  A
C1436      H1441   1.085       .  S
C1438      C1439   1.507       .  S
C1439      H1443   1.111       .  S
C1439      H1445   1.110       .  S
C1442      H1446   1.110   1_655  S
C1442      H1448   1.111       .  S
